Global frequency set at 1000000000000 ticks per second
gem5 Simulator System.  https://www.gem5.org
gem5 is copyrighted software; use the --copyright option for details.

gem5 version 22.1.0.0
gem5 compiled Jul 11 2023 13:17:23
gem5 started Jul 11 2023 13:18:35
gem5 executing on adwaith-HP-ProDesk-600-G5-PCI-MT, pid 416814
command line: build/X86/gem5.opt configs/example/garnet_synth_traffic.py --num-cpus=16 --network=garnet --topology=Mesh_XY --routing-algorithm=1 --mesh-rows=4 --router-latency=3 --injectionrate=0.4 --sim-cycles=5000000 --num-dirs=16

Tail packet : 2 at the NIC in 8

Tail packet : 5 at the NIC in 3


Changing destination to : 9 from : 5 for flit : 36 for packet : 19 

here in modified routing algorithm

Router id : 5
flit_id : 36
Input port direction: West
my x : 1
my y : 1
destination_id : 9
destination x : 1
destination y : 2
x hops : 0
y hops : 1
x direction : 1
y direction : 1

 Rerouted packet : 19 reached : 9 from : 5 



Changing destination to : 13 from : 11 for flit : 74 for packet : 29 

here in modified routing algorithm

Router id : 5
flit_id : 74
Input port direction: West
my x : 1
my y : 1
destination_id : 13
destination x : 1
destination y : 3
x hops : 0
y hops : 2
x direction : 1
y direction : 1
Tail packet : 12 at the NIC in 5

Tail packet : 33 at the NIC in 1

Tail packet : 1 at the NIC in 6

Tail packet : 3 at the NIC in 8


 Head!!! 
Dropping packet : 19 at the NIC in 9

Tail packet : 15 at the NIC in 13

Dropping packet : 19 at the NIC in 9

Tail packet : 18 at the NIC in 7

Tail packet : 47 at the NIC in 15

Tail packet : 32 at the NIC in 4

Tail packet : 20 at the NIC in 6

Tail packet : 42 at the NIC in 12

Tail packet : 10 at the NIC in 14

Tail packet : 34 at the NIC in 10

Tail packet : 8 at the NIC in 8


here in modified routing algorithm

Router id : 9
flit_id : 74
Input port direction: South
my x : 1
my y : 2
destination_id : 13
destination x : 1
destination y : 3
x hops : 0
y hops : 1
x direction : 1
y direction : 1
Tail packet : 35 at the NIC in 9

Dropping packet : 19 at the NIC in 9

Tail packet : 7 at the NIC in 7

Tail packet : 11 at the NIC in 15

Tail packet : 4 at the NIC in 3

Tail packet : 26 at the NIC in 5

Dropping packet : 19 at the NIC in 9

Tail packet : 37 at the NIC in 2

Tail packet : 21 at the NIC in 8

Tail packet : 30 at the NIC in 14

Tail packet : 14 at the NIC in 3

Tail packet : 22 at the NIC in 1


 Rerouted packet : 29 reached : 13 from : 11 


Tail packet : 16 at the NIC in 14

Tail packet : 46 at the NIC in 4

Tail packet : 27 at the NIC in 11

Tail packet : 13 at the NIC in 4

Tail packet : 17 at the NIC in 14

Tail packet : 55 at the NIC in 5

Tail packet : 38 at the NIC in 13

Tail packet : 36 at the NIC in 10

Tail packet : 0 at the NIC in 11

Tail packet : 75 at the NIC in 10

Tail packet : 65 at the NIC in 12


 Head!!! 
Dropping packet : 29 at the NIC in 13

Tail packet : 51 at the NIC in 6

Tail packet : 39 at the NIC in 14


Changing destination to : 0 from : 4 for flit : 163 for packet : 66 

here in modified routing algorithm

Router id : 5
flit_id : 163
Input port direction: East
my x : 1
my y : 1
destination_id : 0
destination x : 0
destination y : 0
x hops : 1
y hops : 1
x direction : 0
y direction : 0
Tail packet : 68 at the NIC in 13

Dropping packet : 29 at the NIC in 13

Tail packet : 44 at the NIC in 9

Tail packet : 9 at the NIC in 8

Tail packet : 23 at the NIC in 12

Tail packet : 69 at the NIC in 6

Tail packet : 6 at the NIC in 4

Tail packet : 80 at the NIC in 5

Tail packet : 77 at the NIC in 8

Tail packet : 90 at the NIC in 9

Tail packet : 78 at the NIC in 15

Tail packet : 54 at the NIC in 8

Tail packet : 67 at the NIC in 5

Tail packet : 53 at the NIC in 3

Tail packet : 28 at the NIC in 11


here in modified routing algorithm

Router id : 4
flit_id : 163
Input port direction: East
my x : 0
my y : 1
destination_id : 0
destination x : 0
destination y : 0
x hops : 0
y hops : 1
x direction : 1
y direction : 0
Tail packet : 49 at the NIC in 5

Tail packet : 87 at the NIC in 12

Tail packet : 70 at the NIC in 8

Tail packet : 52 at the NIC in 9

Dropping packet : 29 at the NIC in 13

Tail packet : 41 at the NIC in 6

Tail packet : 25 at the NIC in 10

Tail packet : 81 at the NIC in 9

Tail packet : 45 at the NIC in 0

Dropping packet : 29 at the NIC in 13

Tail packet : 74 at the NIC in 10

Tail packet : 24 at the NIC in 14

Tail packet : 93 at the NIC in 6

Tail packet : 84 at the NIC in 5


 Rerouted packet : 66 reached : 0 from : 4 


Tail packet : 31 at the NIC in 15

Tail packet : 58 at the NIC in 10

Tail packet : 40 at the NIC in 11

Tail packet : 61 at the NIC in 12

Tail packet : 72 at the NIC in 7

Tail packet : 94 at the NIC in 14

Tail packet : 82 at the NIC in 10


Changing destination to : 1 from : 5 for flit : 203 for packet : 86 

here in modified routing algorithm

Router id : 5
flit_id : 203
Input port direction: North
my x : 1
my y : 1
destination_id : 1
destination x : 1
destination y : 0
x hops : 0
y hops : 1
x direction : 1
y direction : 0
Tail packet : 85 at the NIC in 5

Tail packet : 50 at the NIC in 15


 Head!!! 
Dropping packet : 66 at the NIC in 0

Tail packet : 106 at the NIC in 3

Dropping packet : 66 at the NIC in 0

Tail packet : 59 at the NIC in 12

Tail packet : 73 at the NIC in 5

Tail packet : 98 at the NIC in 5

Tail packet : 83 at the NIC in 12

Tail packet : 102 at the NIC in 2

Dropping packet : 66 at the NIC in 0

Tail packet : 116 at the NIC in 15

Tail packet : 64 at the NIC in 2

Tail packet : 110 at the NIC in 11

Tail packet : 124 at the NIC in 4


 Rerouted packet : 86 reached : 1 from : 5 


Tail packet : 62 at the NIC in 0

Dropping packet : 66 at the NIC in 0

Tail packet : 97 at the NIC in 8

Tail packet : 112 at the NIC in 10

Tail packet : 43 at the NIC in 14

Tail packet : 60 at the NIC in 11

Tail packet : 76 at the NIC in 11

Tail packet : 104 at the NIC in 10

Tail packet : 56 at the NIC in 1

Tail packet : 120 at the NIC in 5

Tail packet : 121 at the NIC in 2

Tail packet : 79 at the NIC in 2

Tail packet : 96 at the NIC in 9

Tail packet : 71 at the NIC in 5

Tail packet : 107 at the NIC in 1

Tail packet : 88 at the NIC in 11

Tail packet : 125 at the NIC in 4

Tail packet : 139 at the NIC in 14

Tail packet : 48 at the NIC in 1

Tail packet : 149 at the NIC in 13

Tail packet : 111 at the NIC in 0

Tail packet : 113 at the NIC in 13


 Head!!! 
Dropping packet : 86 at the NIC in 1

Tail packet : 63 at the NIC in 14

Tail packet : 92 at the NIC in 1

Tail packet : 57 at the NIC in 12

Tail packet : 105 at the NIC in 9

Tail packet : 141 at the NIC in 13

Tail packet : 103 at the NIC in 7

Tail packet : 101 at the NIC in 3

Tail packet : 114 at the NIC in 11

Tail packet : 115 at the NIC in 3

Tail packet : 144 at the NIC in 10

Dropping packet : 86 at the NIC in 1


Changing destination to : 15 from : 13 for flit : 357 for packet : 148 

here in modified routing algorithm

Router id : 5
flit_id : 357
Input port direction: South
my x : 1
my y : 1
destination_id : 15
destination x : 3
destination y : 3
x hops : 2
y hops : 2
x direction : 1
y direction : 1
Tail packet : 130 at the NIC in 8

Tail packet : 117 at the NIC in 1

Tail packet : 137 at the NIC in 6

Tail packet : 118 at the NIC in 7

Tail packet : 131 at the NIC in 3

Tail packet : 140 at the NIC in 6

Tail packet : 156 at the NIC in 5

Tail packet : 129 at the NIC in 9

Tail packet : 173 at the NIC in 15

Dropping packet : 86 at the NIC in 1

Tail packet : 100 at the NIC in 7

Tail packet : 164 at the NIC in 11

Tail packet : 99 at the NIC in 7


here in modified routing algorithm

Router id : 6
flit_id : 357
Input port direction: West
my x : 2
my y : 1
destination_id : 15
destination x : 3
destination y : 3
x hops : 1
y hops : 2
x direction : 1
y direction : 1
Tail packet : 95 at the NIC in 6

Tail packet : 91 at the NIC in 12

Tail packet : 167 at the NIC in 9

Tail packet : 127 at the NIC in 13

Tail packet : 109 at the NIC in 1

Tail packet : 138 at the NIC in 4

Tail packet : 160 at the NIC in 1

Tail packet : 132 at the NIC in 15

Tail packet : 135 at the NIC in 13

Tail packet : 151 at the NIC in 1

Tail packet : 168 at the NIC in 10

Tail packet : 182 at the NIC in 6


here in modified routing algorithm

Router id : 7
flit_id : 357
Input port direction: West
my x : 3
my y : 1
destination_id : 15
destination x : 3
destination y : 3
x hops : 0
y hops : 2
x direction : 1
y direction : 1
Tail packet : 122 at the NIC in 7

Tail packet : 150 at the NIC in 12

Tail packet : 147 at the NIC in 12


Changing destination to : 15 from : 13 for flit : 403 for packet : 166 

here in modified routing algorithm

Router id : 5
flit_id : 403
Input port direction: South
my x : 1
my y : 1
destination_id : 15
destination x : 3
destination y : 3
x hops : 2
y hops : 2
x direction : 1
y direction : 1
Dropping packet : 86 at the NIC in 1

Tail packet : 157 at the NIC in 14

Tail packet : 136 at the NIC in 6

Tail packet : 126 at the NIC in 7

Tail packet : 143 at the NIC in 14

Tail packet : 89 at the NIC in 15

Tail packet : 142 at the NIC in 1

Tail packet : 134 at the NIC in 7


here in modified routing algorithm

Router id : 11
flit_id : 357
Input port direction: South
my x : 3
my y : 2
destination_id : 15
destination x : 3
destination y : 3
x hops : 0
y hops : 1
x direction : 1
y direction : 1
Tail packet : 153 at the NIC in 1

Tail packet : 119 at the NIC in 12

Tail packet : 165 at the NIC in 0

Tail packet : 163 at the NIC in 10


here in modified routing algorithm

Router id : 6
flit_id : 403
Input port direction: West
my x : 2
my y : 1
destination_id : 15
destination x : 3
destination y : 3
x hops : 1
y hops : 2
x direction : 1
y direction : 1
Tail packet : 169 at the NIC in 4

Tail packet : 154 at the NIC in 12

Tail packet : 213 at the NIC in 2

Tail packet : 186 at the NIC in 13

Tail packet : 172 at the NIC in 13

Tail packet : 170 at the NIC in 5

Tail packet : 192 at the NIC in 4

Tail packet : 188 at the NIC in 14

Tail packet : 174 at the NIC in 8

Tail packet : 123 at the NIC in 0


 Rerouted packet : 148 reached : 15 from : 13 


Tail packet : 178 at the NIC in 13

Tail packet : 152 at the NIC in 6


here in modified routing algorithm

Router id : 7
flit_id : 403
Input port direction: West
my x : 3
my y : 1
destination_id : 15
destination x : 3
destination y : 3
x hops : 0
y hops : 2
x direction : 1
y direction : 1
Tail packet : 133 at the NIC in 4

Tail packet : 108 at the NIC in 3

Tail packet : 162 at the NIC in 14

Tail packet : 155 at the NIC in 12

Tail packet : 195 at the NIC in 9

Tail packet : 128 at the NIC in 2

Tail packet : 210 at the NIC in 0

Tail packet : 223 at the NIC in 13

Tail packet : 158 at the NIC in 2

Tail packet : 146 at the NIC in 10

Tail packet : 194 at the NIC in 14

Tail packet : 202 at the NIC in 3

Tail packet : 184 at the NIC in 6


 Head!!! 
Dropping packet : 148 at the NIC in 15

Tail packet : 199 at the NIC in 13

Tail packet : 215 at the NIC in 9

Tail packet : 187 at the NIC in 1

Tail packet : 201 at the NIC in 14

Tail packet : 179 at the NIC in 3


here in modified routing algorithm

Router id : 11
flit_id : 403
Input port direction: South
my x : 3
my y : 2
destination_id : 15
destination x : 3
destination y : 3
x hops : 0
y hops : 1
x direction : 1
y direction : 1
Tail packet : 222 at the NIC in 8

Tail packet : 208 at the NIC in 9

Tail packet : 161 at the NIC in 5

Tail packet : 193 at the NIC in 1

Dropping packet : 148 at the NIC in 15

Tail packet : 197 at the NIC in 7

Tail packet : 145 at the NIC in 15

Tail packet : 177 at the NIC in 10

Tail packet : 185 at the NIC in 1

Tail packet : 209 at the NIC in 5

Tail packet : 196 at the NIC in 9

Tail packet : 204 at the NIC in 2

Tail packet : 159 at the NIC in 13

Tail packet : 189 at the NIC in 9


 Rerouted packet : 166 reached : 15 from : 13 


Tail packet : 176 at the NIC in 3

Tail packet : 249 at the NIC in 6

Tail packet : 236 at the NIC in 14

Dropping packet : 148 at the NIC in 15

Tail packet : 183 at the NIC in 8

Tail packet : 211 at the NIC in 8

Tail packet : 190 at the NIC in 5

Tail packet : 175 at the NIC in 1

Tail packet : 221 at the NIC in 10

Tail packet : 171 at the NIC in 6

Tail packet : 180 at the NIC in 7

Tail packet : 214 at the NIC in 8

Tail packet : 229 at the NIC in 2


 Head!!! 
Dropping packet : 166 at the NIC in 15


Changing destination to : 14 from : 15 for flit : 611 for packet : 258 

here in modified routing algorithm

Router id : 5
flit_id : 611
Input port direction: West
my x : 1
my y : 1
destination_id : 14
destination x : 2
destination y : 3
x hops : 1
y hops : 2
x direction : 1
y direction : 1
Tail packet : 217 at the NIC in 5

Tail packet : 216 at the NIC in 9

Tail packet : 206 at the NIC in 12

Tail packet : 231 at the NIC in 2

Dropping packet : 148 at the NIC in 15

Tail packet : 232 at the NIC in 10

Tail packet : 218 at the NIC in 8

Tail packet : 203 at the NIC in 8

Dropping packet : 166 at the NIC in 15

Tail packet : 247 at the NIC in 3

Tail packet : 255 at the NIC in 6


here in modified routing algorithm

Router id : 6
flit_id : 611
Input port direction: West
my x : 2
my y : 1
destination_id : 14
destination x : 2
destination y : 3
x hops : 0
y hops : 2
x direction : 1
y direction : 1
Tail packet : 198 at the NIC in 10

Tail packet : 228 at the NIC in 9

Tail packet : 230 at the NIC in 2

Tail packet : 240 at the NIC in 15

Tail packet : 220 at the NIC in 14

Tail packet : 241 at the NIC in 10

Tail packet : 237 at the NIC in 1

Tail packet : 254 at the NIC in 4

Tail packet : 239 at the NIC in 13

Tail packet : 252 at the NIC in 11

Tail packet : 248 at the NIC in 15

Tail packet : 270 at the NIC in 7

Tail packet : 273 at the NIC in 14

Tail packet : 251 at the NIC in 10

Tail packet : 257 at the NIC in 8

Tail packet : 256 at the NIC in 9

Tail packet : 200 at the NIC in 10

Dropping packet : 166 at the NIC in 15


here in modified routing algorithm

Router id : 10
flit_id : 611
Input port direction: South
my x : 2
my y : 2
destination_id : 14
destination x : 2
destination y : 3
x hops : 0
y hops : 1
x direction : 1
y direction : 1
Tail packet : 226 at the NIC in 1

Tail packet : 250 at the NIC in 5

Tail packet : 212 at the NIC in 13

Tail packet : 233 at the NIC in 9

Tail packet : 261 at the NIC in 5

Tail packet : 225 at the NIC in 1

Dropping packet : 166 at the NIC in 15

Tail packet : 262 at the NIC in 10

Tail packet : 238 at the NIC in 12

Tail packet : 219 at the NIC in 9


Changing destination to : 13 from : 4 for flit : 664 for packet : 275 

here in modified routing algorithm

Router id : 5
flit_id : 664
Input port direction: East
my x : 1
my y : 1
destination_id : 13
destination x : 1
destination y : 3
x hops : 0
y hops : 2
x direction : 1
y direction : 1
Tail packet : 181 at the NIC in 11

Tail packet : 282 at the NIC in 6

Tail packet : 205 at the NIC in 4

Tail packet : 266 at the NIC in 12

Tail packet : 289 at the NIC in 8

Tail packet : 234 at the NIC in 9

Tail packet : 244 at the NIC in 10


 Rerouted packet : 258 reached : 14 from : 15 


Tail packet : 224 at the NIC in 15

Tail packet : 260 at the NIC in 15

Tail packet : 286 at the NIC in 5

Tail packet : 299 at the NIC in 9

Tail packet : 246 at the NIC in 2

Tail packet : 227 at the NIC in 12

Tail packet : 297 at the NIC in 8


here in modified routing algorithm

Router id : 9
flit_id : 664
Input port direction: South
my x : 1
my y : 2
destination_id : 13
destination x : 1
destination y : 3
x hops : 0
y hops : 1
x direction : 1
y direction : 1
Tail packet : 285 at the NIC in 14

Tail packet : 279 at the NIC in 1

Tail packet : 191 at the NIC in 2

Tail packet : 294 at the NIC in 4

Tail packet : 296 at the NIC in 3

Tail packet : 265 at the NIC in 14

Tail packet : 288 at the NIC in 13

Tail packet : 298 at the NIC in 0


 Rerouted packet : 275 reached : 13 from : 4 


Tail packet : 242 at the NIC in 9

Tail packet : 295 at the NIC in 11


Changing destination to : 4 from : 9 for flit : 770 for packet : 329 

here in modified routing algorithm

Router id : 5
flit_id : 770
Input port direction: East
my x : 1
my y : 1
destination_id : 4
destination x : 0
destination y : 1
x hops : 1
y hops : 0
x direction : 0
y direction : 1
Tail packet : 292 at the NIC in 4

Tail packet : 309 at the NIC in 12

Tail packet : 308 at the NIC in 8

Tail packet : 287 at the NIC in 8

Tail packet : 274 at the NIC in 4

Tail packet : 290 at the NIC in 9

Tail packet : 293 at the NIC in 14

Tail packet : 235 at the NIC in 3

Tail packet : 332 at the NIC in 11

Tail packet : 321 at the NIC in 7

Tail packet : 267 at the NIC in 10

Tail packet : 312 at the NIC in 5

Tail packet : 207 at the NIC in 2

Tail packet : 320 at the NIC in 0

Tail packet : 310 at the NIC in 12

Tail packet : 264 at the NIC in 12


 Head!!! 
Dropping packet : 275 at the NIC in 13

Tail packet : 276 at the NIC in 9

Tail packet : 283 at the NIC in 1

Tail packet : 291 at the NIC in 10

Tail packet : 277 at the NIC in 3

Tail packet : 315 at the NIC in 7

Tail packet : 306 at the NIC in 6

Tail packet : 243 at the NIC in 14

Tail packet : 327 at the NIC in 5

Tail packet : 284 at the NIC in 2

Tail packet : 301 at the NIC in 8


 Rerouted packet : 329 reached : 4 from : 9 


Tail packet : 280 at the NIC in 6

Tail packet : 323 at the NIC in 11

Tail packet : 337 at the NIC in 6


Changing destination to : 12 from : 8 for flit : 779 for packet : 334 

here in modified routing algorithm

Router id : 5
flit_id : 779
Input port direction: East
my x : 1
my y : 1
destination_id : 12
destination x : 0
destination y : 3
x hops : 1
y hops : 2
x direction : 0
y direction : 1
Dropping packet : 275 at the NIC in 13

Tail packet : 281 at the NIC in 0

Tail packet : 269 at the NIC in 12

Tail packet : 322 at the NIC in 4

Tail packet : 263 at the NIC in 1

Tail packet : 335 at the NIC in 10

Tail packet : 271 at the NIC in 15

Tail packet : 333 at the NIC in 11


 Head!!! 
Dropping packet : 258 at the NIC in 14

Tail packet : 300 at the NIC in 1

Tail packet : 343 at the NIC in 13


 Head!!! 
Dropping packet : 329 at the NIC in 4

Tail packet : 339 at the NIC in 0

Tail packet : 330 at the NIC in 13

Tail packet : 331 at the NIC in 6

Tail packet : 253 at the NIC in 11

Tail packet : 278 at the NIC in 6

Tail packet : 355 at the NIC in 1

Tail packet : 316 at the NIC in 13

Tail packet : 368 at the NIC in 0

Tail packet : 340 at the NIC in 4


here in modified routing algorithm

Router id : 4
flit_id : 779
Input port direction: East
my x : 0
my y : 1
destination_id : 12
destination x : 0
destination y : 3
x hops : 0
y hops : 2
x direction : 1
y direction : 1
Tail packet : 354 at the NIC in 12

Tail packet : 351 at the NIC in 8

Tail packet : 341 at the NIC in 4

Tail packet : 303 at the NIC in 0

Tail packet : 326 at the NIC in 13

Tail packet : 307 at the NIC in 10

Tail packet : 325 at the NIC in 14

Tail packet : 313 at the NIC in 11

Tail packet : 359 at the NIC in 6

Dropping packet : 258 at the NIC in 14

Tail packet : 344 at the NIC in 1

Tail packet : 364 at the NIC in 5

Dropping packet : 275 at the NIC in 13

Tail packet : 305 at the NIC in 0

Tail packet : 346 at the NIC in 8

Tail packet : 245 at the NIC in 0

Tail packet : 311 at the NIC in 13

Tail packet : 318 at the NIC in 2

Tail packet : 304 at the NIC in 1

Tail packet : 345 at the NIC in 14

Tail packet : 268 at the NIC in 6

Tail packet : 369 at the NIC in 15

Tail packet : 259 at the NIC in 14

Dropping packet : 275 at the NIC in 13

Tail packet : 336 at the NIC in 4


here in modified routing algorithm

Router id : 8
flit_id : 779
Input port direction: South
my x : 0
my y : 2
destination_id : 12
destination x : 0
destination y : 3
x hops : 0
y hops : 1
x direction : 1
y direction : 1
Tail packet : 365 at the NIC in 8

Dropping packet : 329 at the NIC in 4

Dropping packet : 258 at the NIC in 14

Tail packet : 361 at the NIC in 15

Dropping packet : 258 at the NIC in 14

Tail packet : 358 at the NIC in 5

Tail packet : 314 at the NIC in 13

Tail packet : 317 at the NIC in 4

Tail packet : 324 at the NIC in 12

Tail packet : 362 at the NIC in 13

Tail packet : 272 at the NIC in 15

Tail packet : 349 at the NIC in 15

Tail packet : 350 at the NIC in 11

Tail packet : 360 at the NIC in 14


 Rerouted packet : 334 reached : 12 from : 8 


Tail packet : 342 at the NIC in 4

Tail packet : 390 at the NIC in 12

Tail packet : 363 at the NIC in 9

Tail packet : 338 at the NIC in 8

Dropping packet : 329 at the NIC in 4

Tail packet : 328 at the NIC in 12

Tail packet : 302 at the NIC in 13

Tail packet : 348 at the NIC in 2

Tail packet : 382 at the NIC in 14

Tail packet : 319 at the NIC in 3


 Head!!! 
Dropping packet : 334 at the NIC in 12

Tail packet : 347 at the NIC in 3

Tail packet : 375 at the NIC in 14

Tail packet : 353 at the NIC in 2

Dropping packet : 334 at the NIC in 12

Tail packet : 367 at the NIC in 5

Tail packet : 380 at the NIC in 3

Dropping packet : 329 at the NIC in 4

Dropping packet : 334 at the NIC in 12

Tail packet : 357 at the NIC in 2

Tail packet : 371 at the NIC in 9

Tail packet : 383 at the NIC in 7

Tail packet : 374 at the NIC in 11

Tail packet : 381 at the NIC in 5

Tail packet : 385 at the NIC in 3

Tail packet : 376 at the NIC in 13

Tail packet : 377 at the NIC in 12

Tail packet : 386 at the NIC in 4

Tail packet : 393 at the NIC in 8

Tail packet : 366 at the NIC in 6

Tail packet : 402 at the NIC in 2

Tail packet : 404 at the NIC in 0

Tail packet : 391 at the NIC in 11

Tail packet : 387 at the NIC in 9

Tail packet : 405 at the NIC in 3

Dropping packet : 334 at the NIC in 12

Tail packet : 407 at the NIC in 8

Tail packet : 412 at the NIC in 8

Tail packet : 352 at the NIC in 4

Tail packet : 416 at the NIC in 13

Tail packet : 356 at the NIC in 4

Tail packet : 399 at the NIC in 8

Tail packet : 419 at the NIC in 10

Tail packet : 413 at the NIC in 10

Tail packet : 410 at the NIC in 3

Tail packet : 403 at the NIC in 8

Tail packet : 398 at the NIC in 13

Tail packet : 400 at the NIC in 11

Tail packet : 406 at the NIC in 6

Tail packet : 414 at the NIC in 1

Tail packet : 431 at the NIC in 5

Tail packet : 443 at the NIC in 0

Tail packet : 395 at the NIC in 8

Tail packet : 372 at the NIC in 2

Tail packet : 427 at the NIC in 3

Tail packet : 429 at the NIC in 5

Tail packet : 423 at the NIC in 6

Tail packet : 388 at the NIC in 11

Tail packet : 426 at the NIC in 10

Tail packet : 389 at the NIC in 3

Tail packet : 453 at the NIC in 2

Tail packet : 408 at the NIC in 12

Tail packet : 422 at the NIC in 0

Tail packet : 437 at the NIC in 8

Tail packet : 463 at the NIC in 0

Tail packet : 392 at the NIC in 13

Tail packet : 433 at the NIC in 1

Tail packet : 396 at the NIC in 15

Tail packet : 394 at the NIC in 11

Tail packet : 384 at the NIC in 3

Tail packet : 417 at the NIC in 8

Tail packet : 373 at the NIC in 13

Tail packet : 425 at the NIC in 14

Tail packet : 420 at the NIC in 11

Tail packet : 378 at the NIC in 7

Tail packet : 479 at the NIC in 15

Tail packet : 411 at the NIC in 5

Tail packet : 424 at the NIC in 5

Tail packet : 452 at the NIC in 6

Tail packet : 370 at the NIC in 15

Tail packet : 428 at the NIC in 10

Tail packet : 432 at the NIC in 0

Tail packet : 445 at the NIC in 4

Tail packet : 458 at the NIC in 4

Tail packet : 434 at the NIC in 0

Tail packet : 459 at the NIC in 13

Tail packet : 448 at the NIC in 9

Tail packet : 457 at the NIC in 7


Changing destination to : 15 from : 13 for flit : 1157 for packet : 488 

here in modified routing algorithm

Router id : 5
flit_id : 1157
Input port direction: South
my x : 1
my y : 1
destination_id : 15
destination x : 3
destination y : 3
x hops : 2
y hops : 2
x direction : 1
y direction : 1
Tail packet : 464 at the NIC in 4

Tail packet : 379 at the NIC in 8

Tail packet : 439 at the NIC in 15

Tail packet : 446 at the NIC in 11

Tail packet : 480 at the NIC in 8

Tail packet : 438 at the NIC in 15

Tail packet : 477 at the NIC in 7

Tail packet : 440 at the NIC in 6


here in modified routing algorithm

Router id : 6
flit_id : 1157
Input port direction: West
my x : 2
my y : 1
destination_id : 15
destination x : 3
destination y : 3
x hops : 1
y hops : 2
x direction : 1
y direction : 1
Tail packet : 442 at the NIC in 4

Tail packet : 478 at the NIC in 5

Tail packet : 500 at the NIC in 11

Tail packet : 461 at the NIC in 15

Tail packet : 436 at the NIC in 11

Tail packet : 450 at the NIC in 1

Tail packet : 469 at the NIC in 5


Changing destination to : 13 from : 5 for flit : 1191 for packet : 498 

here in modified routing algorithm

Router id : 5
flit_id : 1191
Input port direction: South
my x : 1
my y : 1
destination_id : 13
destination x : 1
destination y : 3
x hops : 0
y hops : 2
x direction : 1
y direction : 1
Tail packet : 467 at the NIC in 9

Tail packet : 447 at the NIC in 0

Tail packet : 471 at the NIC in 12

Tail packet : 470 at the NIC in 2

Tail packet : 454 at the NIC in 15


here in modified routing algorithm

Router id : 7
flit_id : 1157
Input port direction: West
my x : 3
my y : 1
destination_id : 15
destination x : 3
destination y : 3
x hops : 0
y hops : 2
x direction : 1
y direction : 1
Tail packet : 409 at the NIC in 6

Tail packet : 491 at the NIC in 10

Tail packet : 415 at the NIC in 12

Tail packet : 481 at the NIC in 12

Tail packet : 441 at the NIC in 2

Tail packet : 456 at the NIC in 5

Tail packet : 444 at the NIC in 1

Tail packet : 462 at the NIC in 7


here in modified routing algorithm

Router id : 9
flit_id : 1191
Input port direction: South
my x : 1
my y : 2
destination_id : 13
destination x : 1
destination y : 3
x hops : 0
y hops : 1
x direction : 1
y direction : 1
Tail packet : 521 at the NIC in 12

Tail packet : 519 at the NIC in 8

Tail packet : 483 at the NIC in 14


here in modified routing algorithm

Router id : 11
flit_id : 1157
Input port direction: South
my x : 3
my y : 2
destination_id : 15
destination x : 3
destination y : 3
x hops : 0
y hops : 1
x direction : 1
y direction : 1
Tail packet : 495 at the NIC in 14

Tail packet : 509 at the NIC in 9

Tail packet : 530 at the NIC in 2

Tail packet : 475 at the NIC in 8

Tail packet : 486 at the NIC in 3

Tail packet : 472 at the NIC in 0

Tail packet : 512 at the NIC in 2

Tail packet : 476 at the NIC in 14

Tail packet : 487 at the NIC in 15

Tail packet : 482 at the NIC in 15

Tail packet : 524 at the NIC in 7

Tail packet : 451 at the NIC in 14


 Rerouted packet : 498 reached : 13 from : 5 


Tail packet : 449 at the NIC in 4

Tail packet : 520 at the NIC in 4

Tail packet : 397 at the NIC in 2

Tail packet : 499 at the NIC in 9

Tail packet : 401 at the NIC in 1


 Rerouted packet : 488 reached : 15 from : 13 


Tail packet : 513 at the NIC in 6

Tail packet : 418 at the NIC in 9

Tail packet : 543 at the NIC in 12

Tail packet : 490 at the NIC in 3

Tail packet : 508 at the NIC in 3

Tail packet : 494 at the NIC in 9

Tail packet : 535 at the NIC in 15

Tail packet : 474 at the NIC in 7

Tail packet : 529 at the NIC in 6

Tail packet : 485 at the NIC in 10

Tail packet : 496 at the NIC in 9

Tail packet : 540 at the NIC in 13

Tail packet : 468 at the NIC in 0


 Head!!! 
Dropping packet : 498 at the NIC in 13

Tail packet : 435 at the NIC in 2

Tail packet : 421 at the NIC in 5


 Head!!! 
Dropping packet : 488 at the NIC in 15

Tail packet : 526 at the NIC in 9

Tail packet : 515 at the NIC in 4

Tail packet : 502 at the NIC in 4

Tail packet : 564 at the NIC in 7

Tail packet : 539 at the NIC in 5

Dropping packet : 498 at the NIC in 13

Tail packet : 510 at the NIC in 4

Tail packet : 506 at the NIC in 3

Dropping packet : 498 at the NIC in 13

Tail packet : 549 at the NIC in 1

Tail packet : 528 at the NIC in 6

Tail packet : 484 at the NIC in 15

Tail packet : 573 at the NIC in 2

Tail packet : 536 at the NIC in 13

Tail packet : 516 at the NIC in 8

Tail packet : 505 at the NIC in 4

Tail packet : 465 at the NIC in 0

Dropping packet : 498 at the NIC in 13

Tail packet : 514 at the NIC in 2

Tail packet : 430 at the NIC in 1

Dropping packet : 488 at the NIC in 15

Tail packet : 551 at the NIC in 15

Tail packet : 534 at the NIC in 12

Dropping packet : 488 at the NIC in 15

Tail packet : 507 at the NIC in 15

Tail packet : 527 at the NIC in 7

Tail packet : 473 at the NIC in 6

Tail packet : 559 at the NIC in 8

Tail packet : 553 at the NIC in 10

Tail packet : 538 at the NIC in 6

Tail packet : 532 at the NIC in 11

Dropping packet : 488 at the NIC in 15

Tail packet : 563 at the NIC in 6

Tail packet : 577 at the NIC in 10

Tail packet : 561 at the NIC in 9

Tail packet : 533 at the NIC in 2

Tail packet : 541 at the NIC in 13

Tail packet : 525 at the NIC in 12

Tail packet : 517 at the NIC in 0

Tail packet : 511 at the NIC in 2

Tail packet : 501 at the NIC in 10

Tail packet : 544 at the NIC in 15

Tail packet : 466 at the NIC in 2

Tail packet : 493 at the NIC in 0

Tail packet : 545 at the NIC in 9

Tail packet : 546 at the NIC in 7

Tail packet : 566 at the NIC in 7

Tail packet : 595 at the NIC in 6

Tail packet : 585 at the NIC in 14

Tail packet : 537 at the NIC in 8

Tail packet : 565 at the NIC in 13

Tail packet : 596 at the NIC in 11

Tail packet : 455 at the NIC in 1

Tail packet : 552 at the NIC in 12

Tail packet : 588 at the NIC in 0

Tail packet : 587 at the NIC in 6

Tail packet : 609 at the NIC in 1

Tail packet : 593 at the NIC in 13

Tail packet : 578 at the NIC in 3

Tail packet : 522 at the NIC in 9

Tail packet : 489 at the NIC in 6

Tail packet : 604 at the NIC in 6

Tail packet : 518 at the NIC in 14

Tail packet : 504 at the NIC in 1

Tail packet : 492 at the NIC in 5

Tail packet : 574 at the NIC in 8

Tail packet : 616 at the NIC in 8

Tail packet : 597 at the NIC in 12

Tail packet : 497 at the NIC in 2

Tail packet : 460 at the NIC in 9

Tail packet : 575 at the NIC in 5

Tail packet : 592 at the NIC in 1

Tail packet : 603 at the NIC in 6

Tail packet : 557 at the NIC in 15

Tail packet : 586 at the NIC in 1

Tail packet : 523 at the NIC in 2

Tail packet : 591 at the NIC in 13

Tail packet : 567 at the NIC in 4

Tail packet : 607 at the NIC in 4

Tail packet : 570 at the NIC in 12

Tail packet : 624 at the NIC in 9

Tail packet : 580 at the NIC in 14

Tail packet : 611 at the NIC in 10

Tail packet : 548 at the NIC in 9

Tail packet : 631 at the NIC in 8

Tail packet : 554 at the NIC in 4

Tail packet : 568 at the NIC in 14

Tail packet : 606 at the NIC in 1

Tail packet : 618 at the NIC in 2

Tail packet : 599 at the NIC in 12

Tail packet : 605 at the NIC in 4

Tail packet : 602 at the NIC in 8

Tail packet : 594 at the NIC in 3

Tail packet : 629 at the NIC in 0

Tail packet : 550 at the NIC in 5

Tail packet : 555 at the NIC in 10

Tail packet : 569 at the NIC in 6

Tail packet : 633 at the NIC in 10

Tail packet : 619 at the NIC in 5

Tail packet : 590 at the NIC in 2

Tail packet : 628 at the NIC in 12

Tail packet : 627 at the NIC in 3

Tail packet : 572 at the NIC in 1

Tail packet : 584 at the NIC in 2

Tail packet : 654 at the NIC in 4

Tail packet : 558 at the NIC in 13

Tail packet : 620 at the NIC in 14

Tail packet : 542 at the NIC in 7

Tail packet : 643 at the NIC in 6


Changing destination to : 15 from : 5 for flit : 1612 for packet : 675 

here in modified routing algorithm

Router id : 5
flit_id : 1612
Input port direction: West
my x : 1
my y : 1
destination_id : 15
destination x : 3
destination y : 3
x hops : 2
y hops : 2
x direction : 1
y direction : 1
Tail packet : 615 at the NIC in 13

Tail packet : 613 at the NIC in 2

Tail packet : 639 at the NIC in 7

Tail packet : 638 at the NIC in 10

Tail packet : 637 at the NIC in 9

Tail packet : 659 at the NIC in 0

Tail packet : 684 at the NIC in 2

Tail packet : 647 at the NIC in 10

Tail packet : 601 at the NIC in 7

Tail packet : 674 at the NIC in 15

Tail packet : 556 at the NIC in 11


here in modified routing algorithm

Router id : 6
flit_id : 1612
Input port direction: West
my x : 2
my y : 1
destination_id : 15
destination x : 3
destination y : 3
x hops : 1
y hops : 2
x direction : 1
y direction : 1
Tail packet : 649 at the NIC in 14

Tail packet : 677 at the NIC in 2

Tail packet : 678 at the NIC in 4

Tail packet : 648 at the NIC in 12

Tail packet : 623 at the NIC in 14

Tail packet : 694 at the NIC in 7

Tail packet : 531 at the NIC in 14

Tail packet : 672 at the NIC in 5

Tail packet : 657 at the NIC in 5

Tail packet : 571 at the NIC in 1

Tail packet : 581 at the NIC in 14

Tail packet : 658 at the NIC in 6


here in modified routing algorithm

Router id : 7
flit_id : 1612
Input port direction: West
my x : 3
my y : 1
destination_id : 15
destination x : 3
destination y : 3
x hops : 0
y hops : 2
x direction : 1
y direction : 1
Tail packet : 662 at the NIC in 10

Tail packet : 660 at the NIC in 0

Tail packet : 635 at the NIC in 4

Tail packet : 663 at the NIC in 3

Tail packet : 614 at the NIC in 3

Tail packet : 626 at the NIC in 12

Tail packet : 503 at the NIC in 2

Tail packet : 681 at the NIC in 14

Tail packet : 630 at the NIC in 6

Tail packet : 617 at the NIC in 7

Tail packet : 708 at the NIC in 7

Tail packet : 673 at the NIC in 14

Tail packet : 656 at the NIC in 1

Tail packet : 692 at the NIC in 9

Tail packet : 608 at the NIC in 3

Tail packet : 718 at the NIC in 10

Tail packet : 625 at the NIC in 13

Tail packet : 720 at the NIC in 0

Tail packet : 589 at the NIC in 8

Tail packet : 642 at the NIC in 8

Tail packet : 666 at the NIC in 0

Tail packet : 690 at the NIC in 6

Tail packet : 665 at the NIC in 7

Tail packet : 583 at the NIC in 14

Tail packet : 634 at the NIC in 10

Tail packet : 641 at the NIC in 9

Tail packet : 655 at the NIC in 13

Tail packet : 696 at the NIC in 0

Tail packet : 680 at the NIC in 3

Tail packet : 723 at the NIC in 10

Tail packet : 669 at the NIC in 6

Tail packet : 579 at the NIC in 15

Tail packet : 729 at the NIC in 11

Tail packet : 717 at the NIC in 9

Tail packet : 700 at the NIC in 13

Tail packet : 621 at the NIC in 12

Tail packet : 710 at the NIC in 2

Tail packet : 688 at the NIC in 4

Tail packet : 652 at the NIC in 12

Tail packet : 640 at the NIC in 14

Tail packet : 734 at the NIC in 11

Tail packet : 651 at the NIC in 7

Tail packet : 576 at the NIC in 6

Tail packet : 705 at the NIC in 0

Tail packet : 650 at the NIC in 3

Tail packet : 661 at the NIC in 2

Tail packet : 622 at the NIC in 3

Tail packet : 560 at the NIC in 6

Tail packet : 679 at the NIC in 11

Tail packet : 714 at the NIC in 15

Tail packet : 610 at the NIC in 6

Tail packet : 743 at the NIC in 10


Changing destination to : 1 from : 5 for flit : 1739 for packet : 730 

here in modified routing algorithm

Router id : 5
flit_id : 1739
Input port direction: North
my x : 1
my y : 1
destination_id : 1
destination x : 1
destination y : 0
x hops : 0
y hops : 1
x direction : 1
y direction : 0
Tail packet : 719 at the NIC in 12

Tail packet : 702 at the NIC in 3

Tail packet : 636 at the NIC in 4

Tail packet : 683 at the NIC in 9


here in modified routing algorithm

Router id : 11
flit_id : 1612
Input port direction: South
my x : 3
my y : 2
destination_id : 15
destination x : 3
destination y : 3
x hops : 0
y hops : 1
x direction : 1
y direction : 1
Tail packet : 706 at the NIC in 15

Tail packet : 749 at the NIC in 11

Tail packet : 687 at the NIC in 6

Tail packet : 709 at the NIC in 14

Tail packet : 685 at the NIC in 4

Tail packet : 754 at the NIC in 2

Tail packet : 645 at the NIC in 11

Tail packet : 742 at the NIC in 15

Tail packet : 727 at the NIC in 7

Tail packet : 716 at the NIC in 10


 Rerouted packet : 730 reached : 1 from : 5 


Tail packet : 715 at the NIC in 9

Tail packet : 668 at the NIC in 12

Tail packet : 745 at the NIC in 4

Tail packet : 740 at the NIC in 8

Tail packet : 698 at the NIC in 3

Tail packet : 733 at the NIC in 11

Tail packet : 646 at the NIC in 6

Tail packet : 600 at the NIC in 12

Tail packet : 724 at the NIC in 8

Tail packet : 738 at the NIC in 3

Tail packet : 667 at the NIC in 3

Tail packet : 693 at the NIC in 0

Tail packet : 704 at the NIC in 15

Tail packet : 671 at the NIC in 15

Tail packet : 707 at the NIC in 11

Tail packet : 746 at the NIC in 6

Tail packet : 773 at the NIC in 13

Tail packet : 744 at the NIC in 0

Tail packet : 699 at the NIC in 12

Tail packet : 756 at the NIC in 14

Tail packet : 713 at the NIC in 11

Tail packet : 703 at the NIC in 15

Tail packet : 731 at the NIC in 14

Tail packet : 763 at the NIC in 12

Tail packet : 682 at the NIC in 3

Tail packet : 722 at the NIC in 0

Tail packet : 735 at the NIC in 12

Tail packet : 712 at the NIC in 13

Tail packet : 644 at the NIC in 7

Tail packet : 760 at the NIC in 6

Tail packet : 784 at the NIC in 0

Tail packet : 689 at the NIC in 3

Tail packet : 732 at the NIC in 8

Tail packet : 747 at the NIC in 1


Changing destination to : 13 from : 9 for flit : 1850 for packet : 777 

here in modified routing algorithm

Router id : 5
flit_id : 1850
Input port direction: East
my x : 1
my y : 1
destination_id : 13
destination x : 1
destination y : 3
x hops : 0
y hops : 2
x direction : 1
y direction : 1
Tail packet : 765 at the NIC in 13

Tail packet : 598 at the NIC in 3

Tail packet : 766 at the NIC in 2

Tail packet : 759 at the NIC in 4

Tail packet : 653 at the NIC in 12

Tail packet : 767 at the NIC in 5

Tail packet : 686 at the NIC in 1

Tail packet : 758 at the NIC in 1

Tail packet : 771 at the NIC in 13

Tail packet : 711 at the NIC in 8

Tail packet : 695 at the NIC in 0

Tail packet : 789 at the NIC in 10

Tail packet : 676 at the NIC in 15

Tail packet : 772 at the NIC in 10

Tail packet : 755 at the NIC in 5

Tail packet : 786 at the NIC in 9

Tail packet : 753 at the NIC in 12

Tail packet : 768 at the NIC in 8

Tail packet : 736 at the NIC in 8

Tail packet : 770 at the NIC in 13


 Head!!! 
Dropping packet : 730 at the NIC in 1

Tail packet : 697 at the NIC in 7

Tail packet : 792 at the NIC in 10

Tail packet : 739 at the NIC in 1

Tail packet : 804 at the NIC in 4

Tail packet : 798 at the NIC in 3

Tail packet : 721 at the NIC in 13

Dropping packet : 730 at the NIC in 1

Tail packet : 761 at the NIC in 10

Tail packet : 757 at the NIC in 15

Tail packet : 737 at the NIC in 7

Dropping packet : 730 at the NIC in 1

Tail packet : 725 at the NIC in 2

Tail packet : 824 at the NIC in 3

Tail packet : 726 at the NIC in 2

Tail packet : 764 at the NIC in 4

Tail packet : 790 at the NIC in 0

Dropping packet : 730 at the NIC in 1

Tail packet : 801 at the NIC in 7

Tail packet : 825 at the NIC in 6

Tail packet : 796 at the NIC in 1

Tail packet : 799 at the NIC in 9

Tail packet : 750 at the NIC in 8

Tail packet : 807 at the NIC in 3

Tail packet : 778 at the NIC in 7

Tail packet : 774 at the NIC in 11

Tail packet : 803 at the NIC in 10

Tail packet : 781 at the NIC in 13

Tail packet : 785 at the NIC in 12

Tail packet : 728 at the NIC in 2

Tail packet : 812 at the NIC in 8

Tail packet : 820 at the NIC in 10

Tail packet : 582 at the NIC in 15

Tail packet : 779 at the NIC in 1


Changing destination to : 1 from : 9 for flit : 1998 for packet : 837 

here in modified routing algorithm

Router id : 5
flit_id : 1998
Input port direction: East
my x : 1
my y : 1
destination_id : 1
destination x : 1
destination y : 0
x hops : 0
y hops : 1
x direction : 1
y direction : 0
Tail packet : 814 at the NIC in 12

Tail packet : 751 at the NIC in 4

Tail packet : 783 at the NIC in 2

Tail packet : 816 at the NIC in 4


Changing destination to : 10 from : 7 for flit : 2003 for packet : 838 

here in modified routing algorithm

Router id : 5
flit_id : 2003
Input port direction: West
my x : 1
my y : 1
destination_id : 10
destination x : 2
destination y : 2
x hops : 1
y hops : 1
x direction : 1
y direction : 1
Tail packet : 793 at the NIC in 14

Tail packet : 843 at the NIC in 14

Tail packet : 769 at the NIC in 5

Tail packet : 817 at the NIC in 13

Tail packet : 780 at the NIC in 12

Tail packet : 828 at the NIC in 0

Tail packet : 806 at the NIC in 8

Tail packet : 776 at the NIC in 2

Tail packet : 810 at the NIC in 0

Tail packet : 831 at the NIC in 6

Tail packet : 848 at the NIC in 14


 Rerouted packet : 837 reached : 1 from : 9 


Tail packet : 762 at the NIC in 5

Tail packet : 795 at the NIC in 9

Tail packet : 752 at the NIC in 4

Tail packet : 850 at the NIC in 8

Tail packet : 830 at the NIC in 12

Tail packet : 612 at the NIC in 13


here in modified routing algorithm

Router id : 6
flit_id : 2003
Input port direction: West
my x : 2
my y : 1
destination_id : 10
destination x : 2
destination y : 2
x hops : 0
y hops : 1
x direction : 1
y direction : 1
Tail packet : 827 at the NIC in 7

Tail packet : 782 at the NIC in 10

Tail packet : 851 at the NIC in 13

Tail packet : 833 at the NIC in 8

Tail packet : 841 at the NIC in 0

Tail packet : 791 at the NIC in 14


 Head!!! 
Dropping packet : 837 at the NIC in 1

Tail packet : 847 at the NIC in 5

Dropping packet : 837 at the NIC in 1


 Rerouted packet : 838 reached : 10 from : 7 


Tail packet : 840 at the NIC in 14

Tail packet : 775 at the NIC in 11

Dropping packet : 837 at the NIC in 1

Tail packet : 788 at the NIC in 12

Tail packet : 808 at the NIC in 9

Dropping packet : 837 at the NIC in 1

Tail packet : 787 at the NIC in 14

Tail packet : 819 at the NIC in 7

Tail packet : 815 at the NIC in 9

Tail packet : 857 at the NIC in 5

Tail packet : 846 at the NIC in 1


 Head!!! 
Dropping packet : 838 at the NIC in 10

Tail packet : 852 at the NIC in 11

Tail packet : 821 at the NIC in 12

Tail packet : 813 at the NIC in 0

Tail packet : 832 at the NIC in 8

Tail packet : 794 at the NIC in 4

Tail packet : 822 at the NIC in 1

Dropping packet : 838 at the NIC in 10

Tail packet : 800 at the NIC in 11

Tail packet : 632 at the NIC in 15

Tail packet : 849 at the NIC in 15

Dropping packet : 838 at the NIC in 10

Tail packet : 845 at the NIC in 3

Tail packet : 809 at the NIC in 12

Tail packet : 670 at the NIC in 13

Tail packet : 875 at the NIC in 1

Tail packet : 879 at the NIC in 10

Tail packet : 839 at the NIC in 1

Tail packet : 797 at the NIC in 3

Tail packet : 818 at the NIC in 7

Tail packet : 887 at the NIC in 15

Tail packet : 861 at the NIC in 6

Dropping packet : 838 at the NIC in 10

Tail packet : 858 at the NIC in 1

Tail packet : 870 at the NIC in 5

Tail packet : 863 at the NIC in 0

Tail packet : 889 at the NIC in 14

Tail packet : 835 at the NIC in 15

Tail packet : 878 at the NIC in 10

Tail packet : 842 at the NIC in 12

Tail packet : 829 at the NIC in 8

Tail packet : 866 at the NIC in 3

Tail packet : 874 at the NIC in 8

Tail packet : 855 at the NIC in 13

Tail packet : 823 at the NIC in 14

Tail packet : 836 at the NIC in 15

Tail packet : 860 at the NIC in 7

Tail packet : 885 at the NIC in 8

Tail packet : 854 at the NIC in 5

Tail packet : 871 at the NIC in 1

Tail packet : 903 at the NIC in 11

Tail packet : 862 at the NIC in 13

Tail packet : 916 at the NIC in 12

Tail packet : 917 at the NIC in 0

Tail packet : 880 at the NIC in 2

Tail packet : 897 at the NIC in 8

Tail packet : 741 at the NIC in 15

Tail packet : 884 at the NIC in 0

Tail packet : 844 at the NIC in 2

Tail packet : 906 at the NIC in 13

Tail packet : 877 at the NIC in 6

Tail packet : 881 at the NIC in 10

Tail packet : 905 at the NIC in 0

Tail packet : 856 at the NIC in 4

Tail packet : 867 at the NIC in 10

Tail packet : 899 at the NIC in 1

Tail packet : 868 at the NIC in 0

Tail packet : 910 at the NIC in 4

Tail packet : 853 at the NIC in 8

Tail packet : 911 at the NIC in 10

Tail packet : 908 at the NIC in 13

Tail packet : 929 at the NIC in 12

Tail packet : 940 at the NIC in 0

Tail packet : 892 at the NIC in 4

Tail packet : 865 at the NIC in 8

Tail packet : 886 at the NIC in 3

Tail packet : 882 at the NIC in 12

Tail packet : 915 at the NIC in 13

Tail packet : 898 at the NIC in 9

Tail packet : 891 at the NIC in 10

Tail packet : 900 at the NIC in 7

Tail packet : 873 at the NIC in 6

Tail packet : 936 at the NIC in 5

Tail packet : 896 at the NIC in 0

Tail packet : 924 at the NIC in 9

Tail packet : 919 at the NIC in 10

Tail packet : 923 at the NIC in 6

Tail packet : 907 at the NIC in 7

Tail packet : 934 at the NIC in 11

Tail packet : 901 at the NIC in 7

Tail packet : 926 at the NIC in 10

Tail packet : 944 at the NIC in 5

Tail packet : 914 at the NIC in 2

Tail packet : 928 at the NIC in 12

Tail packet : 904 at the NIC in 1

Tail packet : 802 at the NIC in 11

Tail packet : 912 at the NIC in 14


Changing destination to : 0 from : 8 for flit : 2283 for packet : 958 

here in modified routing algorithm

Router id : 5
flit_id : 2283
Input port direction: East
my x : 1
my y : 1
destination_id : 0
destination x : 0
destination y : 0
x hops : 1
y hops : 1
x direction : 0
y direction : 0
Tail packet : 920 at the NIC in 9

Tail packet : 902 at the NIC in 12

Tail packet : 947 at the NIC in 4

Tail packet : 893 at the NIC in 12

Tail packet : 872 at the NIC in 13

Tail packet : 931 at the NIC in 5

Tail packet : 921 at the NIC in 7

Tail packet : 957 at the NIC in 14

Tail packet : 883 at the NIC in 1

Tail packet : 966 at the NIC in 13

Tail packet : 859 at the NIC in 8

Tail packet : 864 at the NIC in 3

Tail packet : 876 at the NIC in 2

Tail packet : 941 at the NIC in 13

Tail packet : 547 at the NIC in 15

Tail packet : 949 at the NIC in 14

Tail packet : 922 at the NIC in 13

Tail packet : 963 at the NIC in 12


here in modified routing algorithm

Router id : 4
flit_id : 2283
Input port direction: East
my x : 0
my y : 1
destination_id : 0
destination x : 0
destination y : 0
x hops : 0
y hops : 1
x direction : 1
y direction : 0
Tail packet : 960 at the NIC in 4

Tail packet : 946 at the NIC in 8

Tail packet : 948 at the NIC in 3


 Rerouted packet : 675 reached : 15 from : 5 


Tail packet : 927 at the NIC in 6


Changing destination to : 10 from : 15 for flit : 2349 for packet : 988 

here in modified routing algorithm

Router id : 5
flit_id : 2349
Input port direction: West
my x : 1
my y : 1
destination_id : 10
destination x : 2
destination y : 2
x hops : 1
y hops : 1
x direction : 1
y direction : 1
Tail packet : 939 at the NIC in 9

Tail packet : 918 at the NIC in 8

Tail packet : 942 at the NIC in 3

Tail packet : 890 at the NIC in 4

Tail packet : 895 at the NIC in 6

Tail packet : 945 at the NIC in 14


 Rerouted packet : 958 reached : 0 from : 8 


Tail packet : 935 at the NIC in 8

Tail packet : 913 at the NIC in 10


 Head!!! 
Dropping packet : 675 at the NIC in 15

Tail packet : 938 at the NIC in 7

Tail packet : 955 at the NIC in 6


here in modified routing algorithm

Router id : 6
flit_id : 2349
Input port direction: West
my x : 2
my y : 1
destination_id : 10
destination x : 2
destination y : 2
x hops : 0
y hops : 1
x direction : 1
y direction : 1
Tail packet : 925 at the NIC in 10

Tail packet : 969 at the NIC in 1

Tail packet : 894 at the NIC in 0

Tail packet : 952 at the NIC in 2

Tail packet : 959 at the NIC in 9

Tail packet : 984 at the NIC in 7

Dropping packet : 675 at the NIC in 15

Tail packet : 932 at the NIC in 15

Tail packet : 976 at the NIC in 7

Tail packet : 990 at the NIC in 1

Tail packet : 962 at the NIC in 12


 Head!!! 
Dropping packet : 958 at the NIC in 0

Tail packet : 973 at the NIC in 4

Tail packet : 950 at the NIC in 8

Tail packet : 982 at the NIC in 1

Dropping packet : 675 at the NIC in 15

Dropping packet : 675 at the NIC in 15

Tail packet : 979 at the NIC in 6

Tail packet : 970 at the NIC in 14


 Rerouted packet : 988 reached : 10 from : 15 


Tail packet : 980 at the NIC in 10

Tail packet : 951 at the NIC in 1

Tail packet : 985 at the NIC in 9

Tail packet : 996 at the NIC in 13

Tail packet : 983 at the NIC in 0

Tail packet : 943 at the NIC in 8

Dropping packet : 958 at the NIC in 0

Tail packet : 826 at the NIC in 13

Tail packet : 933 at the NIC in 10

Tail packet : 981 at the NIC in 11

Tail packet : 1000 at the NIC in 5

Dropping packet : 958 at the NIC in 0

Tail packet : 971 at the NIC in 3

Dropping packet : 958 at the NIC in 0

Tail packet : 956 at the NIC in 12

Tail packet : 930 at the NIC in 7


 Head!!! 
Dropping packet : 988 at the NIC in 10

Tail packet : 993 at the NIC in 4

Tail packet : 967 at the NIC in 8

Tail packet : 909 at the NIC in 8

Tail packet : 994 at the NIC in 10

Tail packet : 972 at the NIC in 14

Tail packet : 977 at the NIC in 1

Tail packet : 954 at the NIC in 5

Tail packet : 1025 at the NIC in 13

Tail packet : 997 at the NIC in 0

Tail packet : 974 at the NIC in 9

Dropping packet : 988 at the NIC in 10

Tail packet : 965 at the NIC in 15

Tail packet : 1008 at the NIC in 7

Tail packet : 1010 at the NIC in 2

Tail packet : 986 at the NIC in 3

Tail packet : 978 at the NIC in 1

Tail packet : 1007 at the NIC in 10

Dropping packet : 988 at the NIC in 10

Tail packet : 1023 at the NIC in 1

Tail packet : 991 at the NIC in 3

Tail packet : 975 at the NIC in 2

Tail packet : 1002 at the NIC in 7

Dropping packet : 988 at the NIC in 10

Tail packet : 1022 at the NIC in 13

Tail packet : 987 at the NIC in 3

Tail packet : 1006 at the NIC in 5

Tail packet : 1028 at the NIC in 10

Tail packet : 995 at the NIC in 11

Tail packet : 1035 at the NIC in 7

Tail packet : 1037 at the NIC in 10

Tail packet : 811 at the NIC in 13

Tail packet : 1003 at the NIC in 7

Tail packet : 1032 at the NIC in 7

Tail packet : 1009 at the NIC in 1

Tail packet : 1034 at the NIC in 9

Tail packet : 1004 at the NIC in 12

Tail packet : 961 at the NIC in 8

Tail packet : 1019 at the NIC in 7

Tail packet : 1014 at the NIC in 14

Tail packet : 1017 at the NIC in 8

Tail packet : 1012 at the NIC in 2

Tail packet : 1054 at the NIC in 5

Tail packet : 1011 at the NIC in 6

Tail packet : 1051 at the NIC in 11

Tail packet : 1039 at the NIC in 4

Tail packet : 1001 at the NIC in 14

Tail packet : 1045 at the NIC in 11

Tail packet : 1018 at the NIC in 5

Tail packet : 999 at the NIC in 0

Tail packet : 998 at the NIC in 2

Tail packet : 1041 at the NIC in 11

Tail packet : 1026 at the NIC in 7

Tail packet : 1043 at the NIC in 13

Tail packet : 1020 at the NIC in 0

Tail packet : 1021 at the NIC in 2

Tail packet : 1029 at the NIC in 3

Tail packet : 1057 at the NIC in 0

Tail packet : 1061 at the NIC in 13


here in modified routing algorithm

Router id : 9
flit_id : 1850
Input port direction: South
my x : 1
my y : 2
destination_id : 13
destination x : 1
destination y : 3
x hops : 0
y hops : 1
x direction : 1
y direction : 1
Tail packet : 1040 at the NIC in 10

Tail packet : 1082 at the NIC in 7

Tail packet : 1052 at the NIC in 14

Tail packet : 1065 at the NIC in 9

Tail packet : 1015 at the NIC in 3

Tail packet : 1024 at the NIC in 2

Tail packet : 1030 at the NIC in 4

Tail packet : 1013 at the NIC in 12

Tail packet : 748 at the NIC in 13

Tail packet : 1084 at the NIC in 1

Tail packet : 1046 at the NIC in 14

Tail packet : 1071 at the NIC in 6

Tail packet : 1042 at the NIC in 14

Tail packet : 1005 at the NIC in 1

Tail packet : 1072 at the NIC in 8

Tail packet : 1033 at the NIC in 8

Tail packet : 1062 at the NIC in 14

Tail packet : 1027 at the NIC in 5

Tail packet : 1060 at the NIC in 3

Tail packet : 1050 at the NIC in 4

Tail packet : 1053 at the NIC in 7

Tail packet : 1094 at the NIC in 11

Tail packet : 1070 at the NIC in 6

Tail packet : 1038 at the NIC in 5

Tail packet : 1066 at the NIC in 12

Tail packet : 1063 at the NIC in 4

Tail packet : 1078 at the NIC in 3

Tail packet : 1073 at the NIC in 5

Tail packet : 1086 at the NIC in 7

Tail packet : 1047 at the NIC in 5

Tail packet : 1067 at the NIC in 2

Tail packet : 1081 at the NIC in 3

Tail packet : 1059 at the NIC in 0

Tail packet : 1093 at the NIC in 15

Tail packet : 1031 at the NIC in 7

Tail packet : 1036 at the NIC in 13

Tail packet : 1105 at the NIC in 0

Tail packet : 1092 at the NIC in 8

Tail packet : 1058 at the NIC in 12

Tail packet : 1088 at the NIC in 10

Tail packet : 1116 at the NIC in 11

Tail packet : 1079 at the NIC in 7

Tail packet : 1108 at the NIC in 2

Tail packet : 1056 at the NIC in 3

Tail packet : 1083 at the NIC in 2

Tail packet : 1121 at the NIC in 12

Tail packet : 968 at the NIC in 1

Tail packet : 1095 at the NIC in 14

Tail packet : 1100 at the NIC in 11

Tail packet : 1101 at the NIC in 7

Tail packet : 1076 at the NIC in 13

Tail packet : 1106 at the NIC in 0

Tail packet : 805 at the NIC in 13

Tail packet : 1104 at the NIC in 9

Tail packet : 1055 at the NIC in 11

Tail packet : 1087 at the NIC in 12

Tail packet : 1090 at the NIC in 8

Tail packet : 1123 at the NIC in 2

Tail packet : 1048 at the NIC in 12


 Rerouted packet : 777 reached : 13 from : 9 


Tail packet : 1107 at the NIC in 10

Tail packet : 1109 at the NIC in 11

Tail packet : 1130 at the NIC in 6

Tail packet : 1135 at the NIC in 14

Tail packet : 1120 at the NIC in 9

Tail packet : 1145 at the NIC in 13

Tail packet : 1044 at the NIC in 8

Tail packet : 1115 at the NIC in 4

Tail packet : 1080 at the NIC in 14

Tail packet : 1138 at the NIC in 1

Tail packet : 1096 at the NIC in 9

Tail packet : 1122 at the NIC in 12

Tail packet : 1075 at the NIC in 0

Tail packet : 1110 at the NIC in 3

Tail packet : 1091 at the NIC in 2

Tail packet : 1074 at the NIC in 8


 Head!!! 
Dropping packet : 777 at the NIC in 13

Tail packet : 1139 at the NIC in 5

Tail packet : 1099 at the NIC in 11

Tail packet : 1077 at the NIC in 7

Tail packet : 1117 at the NIC in 6

Dropping packet : 777 at the NIC in 13

Tail packet : 1068 at the NIC in 3

Dropping packet : 777 at the NIC in 13

Tail packet : 1114 at the NIC in 11

Tail packet : 1155 at the NIC in 1

Tail packet : 1128 at the NIC in 9

Tail packet : 1098 at the NIC in 12

Tail packet : 1112 at the NIC in 13

Tail packet : 1097 at the NIC in 7

Tail packet : 1134 at the NIC in 7

Tail packet : 1111 at the NIC in 6

Tail packet : 1147 at the NIC in 14

Tail packet : 1144 at the NIC in 10

Tail packet : 1162 at the NIC in 9

Dropping packet : 777 at the NIC in 13

Tail packet : 1132 at the NIC in 8

Tail packet : 1102 at the NIC in 8

Tail packet : 1161 at the NIC in 9

Tail packet : 1089 at the NIC in 1

Tail packet : 1158 at the NIC in 10

Tail packet : 1113 at the NIC in 7

Tail packet : 1166 at the NIC in 11

Tail packet : 1125 at the NIC in 14

Tail packet : 1153 at the NIC in 10

Tail packet : 1127 at the NIC in 13

Tail packet : 1140 at the NIC in 4

Tail packet : 1085 at the NIC in 10

Tail packet : 1142 at the NIC in 11

Tail packet : 1146 at the NIC in 6

Tail packet : 1160 at the NIC in 9

Tail packet : 1133 at the NIC in 15

Tail packet : 1167 at the NIC in 5

Tail packet : 1150 at the NIC in 8

Tail packet : 1118 at the NIC in 2

Tail packet : 1151 at the NIC in 4


Changing destination to : 10 from : 9 for flit : 2722 for packet : 1149 

here in modified routing algorithm

Router id : 5
flit_id : 2722
Input port direction: South
my x : 1
my y : 1
destination_id : 10
destination x : 2
destination y : 2
x hops : 1
y hops : 1
x direction : 1
y direction : 1
Tail packet : 1180 at the NIC in 15

Tail packet : 1157 at the NIC in 5

Tail packet : 1169 at the NIC in 8

Tail packet : 1164 at the NIC in 4

Tail packet : 953 at the NIC in 9

Tail packet : 1159 at the NIC in 5

Tail packet : 1103 at the NIC in 10

Tail packet : 1170 at the NIC in 7

Tail packet : 1136 at the NIC in 15

Tail packet : 1126 at the NIC in 15

Tail packet : 1176 at the NIC in 14

Tail packet : 1173 at the NIC in 2

Tail packet : 1119 at the NIC in 12

Tail packet : 1196 at the NIC in 6


here in modified routing algorithm

Router id : 6
flit_id : 2722
Input port direction: West
my x : 2
my y : 1
destination_id : 10
destination x : 2
destination y : 2
x hops : 0
y hops : 1
x direction : 1
y direction : 1
Tail packet : 1179 at the NIC in 13

Tail packet : 1131 at the NIC in 3

Tail packet : 1165 at the NIC in 2

Tail packet : 1137 at the NIC in 12

Tail packet : 1141 at the NIC in 1

Tail packet : 1174 at the NIC in 6

Tail packet : 1148 at the NIC in 7

Tail packet : 1177 at the NIC in 9

Tail packet : 1184 at the NIC in 13

Tail packet : 1129 at the NIC in 12

Tail packet : 1175 at the NIC in 2

Tail packet : 1172 at the NIC in 8


 Rerouted packet : 1149 reached : 10 from : 9 


Tail packet : 1178 at the NIC in 6

Tail packet : 1171 at the NIC in 11

Tail packet : 1163 at the NIC in 6

Tail packet : 1217 at the NIC in 13

Tail packet : 1124 at the NIC in 8

Tail packet : 1143 at the NIC in 6

Tail packet : 1188 at the NIC in 11

Tail packet : 1205 at the NIC in 8

Tail packet : 1152 at the NIC in 0


 Head!!! 
Dropping packet : 1149 at the NIC in 10

Tail packet : 1156 at the NIC in 7

Tail packet : 1203 at the NIC in 2

Tail packet : 691 at the NIC in 9

Tail packet : 1206 at the NIC in 1

Tail packet : 1185 at the NIC in 15

Tail packet : 1208 at the NIC in 11

Dropping packet : 1149 at the NIC in 10

Tail packet : 1221 at the NIC in 5

Tail packet : 1197 at the NIC in 0

Tail packet : 1200 at the NIC in 15

Tail packet : 1168 at the NIC in 6

Dropping packet : 1149 at the NIC in 10

Tail packet : 1228 at the NIC in 13

Tail packet : 1201 at the NIC in 8

Tail packet : 1231 at the NIC in 3

Tail packet : 1215 at the NIC in 12

Dropping packet : 1149 at the NIC in 10

Tail packet : 1222 at the NIC in 3

Tail packet : 1238 at the NIC in 0

Tail packet : 1207 at the NIC in 12

Tail packet : 1187 at the NIC in 14

Tail packet : 1189 at the NIC in 15

Tail packet : 1182 at the NIC in 15

Tail packet : 1190 at the NIC in 7

Tail packet : 1252 at the NIC in 6

Tail packet : 1244 at the NIC in 14

Tail packet : 1245 at the NIC in 10

Tail packet : 1216 at the NIC in 9

Tail packet : 1016 at the NIC in 1

Tail packet : 1241 at the NIC in 6

Tail packet : 1211 at the NIC in 15

Tail packet : 1213 at the NIC in 15

Tail packet : 1219 at the NIC in 14

Tail packet : 1247 at the NIC in 10

Tail packet : 1225 at the NIC in 1

Tail packet : 1195 at the NIC in 8

Tail packet : 1249 at the NIC in 4

Tail packet : 1251 at the NIC in 0

Tail packet : 1237 at the NIC in 14

Tail packet : 1230 at the NIC in 15

Tail packet : 1214 at the NIC in 11

Tail packet : 1193 at the NIC in 14

Tail packet : 1232 at the NIC in 9

Tail packet : 1226 at the NIC in 2

Tail packet : 1220 at the NIC in 3

Tail packet : 834 at the NIC in 9

Tail packet : 1274 at the NIC in 11

Tail packet : 1236 at the NIC in 14

Tail packet : 1198 at the NIC in 0

Tail packet : 1239 at the NIC in 8

Tail packet : 1194 at the NIC in 0

Tail packet : 1240 at the NIC in 14

Tail packet : 1212 at the NIC in 15

Tail packet : 1253 at the NIC in 6

Tail packet : 1243 at the NIC in 10

Tail packet : 1246 at the NIC in 9

Tail packet : 1265 at the NIC in 4

Tail packet : 1199 at the NIC in 2

Tail packet : 1233 at the NIC in 3

Tail packet : 1181 at the NIC in 8

Tail packet : 1191 at the NIC in 10

Tail packet : 1210 at the NIC in 6

Tail packet : 1242 at the NIC in 11

Tail packet : 1248 at the NIC in 15

Tail packet : 1275 at the NIC in 6

Tail packet : 1271 at the NIC in 5

Tail packet : 1227 at the NIC in 8

Tail packet : 1272 at the NIC in 8

Tail packet : 1069 at the NIC in 1

Tail packet : 1281 at the NIC in 9

Tail packet : 1279 at the NIC in 13

Tail packet : 1209 at the NIC in 4

Tail packet : 1224 at the NIC in 12

Tail packet : 1204 at the NIC in 0

Tail packet : 1259 at the NIC in 4

Tail packet : 1183 at the NIC in 8

Tail packet : 1289 at the NIC in 11

Tail packet : 1223 at the NIC in 8

Tail packet : 1276 at the NIC in 2

Tail packet : 1235 at the NIC in 0

Tail packet : 1277 at the NIC in 12

Tail packet : 1263 at the NIC in 7

Tail packet : 1282 at the NIC in 5

Tail packet : 1218 at the NIC in 12

Tail packet : 1308 at the NIC in 2

Tail packet : 1268 at the NIC in 1


Changing destination to : 0 from : 5 for flit : 3075 for packet : 1294 

here in modified routing algorithm

Router id : 5
flit_id : 3075
Input port direction: East
my x : 1
my y : 1
destination_id : 0
destination x : 0
destination y : 0
x hops : 1
y hops : 1
x direction : 0
y direction : 0
Tail packet : 1299 at the NIC in 0

Tail packet : 1285 at the NIC in 3

Tail packet : 1267 at the NIC in 8

Tail packet : 1283 at the NIC in 14

Tail packet : 1256 at the NIC in 15

Tail packet : 1327 at the NIC in 10

Tail packet : 1234 at the NIC in 0

Tail packet : 1296 at the NIC in 2

Tail packet : 1258 at the NIC in 3

Tail packet : 1270 at the NIC in 3

Tail packet : 1304 at the NIC in 4

Tail packet : 1287 at the NIC in 11

Tail packet : 1280 at the NIC in 1

Tail packet : 1286 at the NIC in 12

Tail packet : 1250 at the NIC in 2


here in modified routing algorithm

Router id : 4
flit_id : 3075
Input port direction: East
my x : 0
my y : 1
destination_id : 0
destination x : 0
destination y : 0
x hops : 0
y hops : 1
x direction : 1
y direction : 0
Tail packet : 1278 at the NIC in 13

Tail packet : 1264 at the NIC in 1

Tail packet : 1303 at the NIC in 11

Tail packet : 1306 at the NIC in 10

Tail packet : 1312 at the NIC in 2

Tail packet : 1305 at the NIC in 4

Tail packet : 1269 at the NIC in 15

Tail packet : 1262 at the NIC in 14

Tail packet : 1293 at the NIC in 1

Tail packet : 1302 at the NIC in 4

Tail packet : 1288 at the NIC in 12

Tail packet : 1290 at the NIC in 14

Tail packet : 1348 at the NIC in 11


Changing destination to : 13 from : 8 for flit : 3203 for packet : 1342 

here in modified routing algorithm

Router id : 5
flit_id : 3203
Input port direction: East
my x : 1
my y : 1
destination_id : 13
destination x : 1
destination y : 3
x hops : 0
y hops : 2
x direction : 1
y direction : 1
Tail packet : 1309 at the NIC in 12

Tail packet : 1229 at the NIC in 12

Tail packet : 1301 at the NIC in 15

Tail packet : 1313 at the NIC in 15

Tail packet : 1329 at the NIC in 6

Tail packet : 1345 at the NIC in 0

Tail packet : 1343 at the NIC in 8

Tail packet : 1298 at the NIC in 4

Tail packet : 1291 at the NIC in 1

Tail packet : 1341 at the NIC in 15

Tail packet : 1337 at the NIC in 6

Tail packet : 1330 at the NIC in 14

Tail packet : 1292 at the NIC in 10

Tail packet : 1350 at the NIC in 5

Tail packet : 1257 at the NIC in 12

Tail packet : 1261 at the NIC in 0

Tail packet : 1318 at the NIC in 4

Tail packet : 1316 at the NIC in 0

Tail packet : 1338 at the NIC in 13

Tail packet : 1340 at the NIC in 15

Tail packet : 1371 at the NIC in 12

Tail packet : 1324 at the NIC in 8

Tail packet : 1326 at the NIC in 2

Tail packet : 1323 at the NIC in 4

Tail packet : 1332 at the NIC in 0

Tail packet : 1336 at the NIC in 5

Tail packet : 1344 at the NIC in 1

Tail packet : 1254 at the NIC in 0

Tail packet : 1349 at the NIC in 2

Tail packet : 1300 at the NIC in 2

Tail packet : 1357 at the NIC in 5

Tail packet : 1273 at the NIC in 12


 Rerouted packet : 1294 reached : 0 from : 5 


Tail packet : 1307 at the NIC in 5

Tail packet : 1325 at the NIC in 11

Tail packet : 1378 at the NIC in 15

Tail packet : 1352 at the NIC in 11


Changing destination to : 8 from : 1 for flit : 3300 for packet : 1387 

here in modified routing algorithm

Router id : 5
flit_id : 3300
Input port direction: East
my x : 1
my y : 1
destination_id : 8
destination x : 0
destination y : 2
x hops : 1
y hops : 1
x direction : 0
y direction : 1
Tail packet : 1360 at the NIC in 13

Tail packet : 1331 at the NIC in 0

Tail packet : 1315 at the NIC in 12

Tail packet : 1321 at the NIC in 13

Tail packet : 1370 at the NIC in 13

Tail packet : 1365 at the NIC in 12


 Head!!! 
Dropping packet : 1294 at the NIC in 0

Tail packet : 1382 at the NIC in 2

Tail packet : 1347 at the NIC in 3

Tail packet : 1385 at the NIC in 1

Tail packet : 1339 at the NIC in 11

Tail packet : 1363 at the NIC in 14

Tail packet : 1379 at the NIC in 10


here in modified routing algorithm

Router id : 4
flit_id : 3300
Input port direction: East
my x : 0
my y : 1
destination_id : 8
destination x : 0
destination y : 2
x hops : 0
y hops : 1
x direction : 1
y direction : 1
Tail packet : 1351 at the NIC in 8

Dropping packet : 1294 at the NIC in 0

Tail packet : 1394 at the NIC in 11

Tail packet : 1284 at the NIC in 10

Tail packet : 1346 at the NIC in 5

Tail packet : 1356 at the NIC in 9

Tail packet : 1395 at the NIC in 12

Tail packet : 1366 at the NIC in 0

Tail packet : 1317 at the NIC in 2

Tail packet : 1384 at the NIC in 13

Tail packet : 1375 at the NIC in 6

Tail packet : 1400 at the NIC in 0

Dropping packet : 1294 at the NIC in 0

Tail packet : 1364 at the NIC in 7

Tail packet : 1368 at the NIC in 12

Tail packet : 1295 at the NIC in 0


 Rerouted packet : 1387 reached : 8 from : 1 


Tail packet : 1391 at the NIC in 2

Tail packet : 1333 at the NIC in 4

Tail packet : 1358 at the NIC in 12


Changing destination to : 13 from : 8 for flit : 3367 for packet : 1426 

here in modified routing algorithm

Router id : 5
flit_id : 3367
Input port direction: East
my x : 1
my y : 1
destination_id : 13
destination x : 1
destination y : 3
x hops : 0
y hops : 2
x direction : 1
y direction : 1
Tail packet : 1393 at the NIC in 10

Tail packet : 1407 at the NIC in 10

Tail packet : 1406 at the NIC in 5

Tail packet : 1401 at the NIC in 13

Dropping packet : 1294 at the NIC in 0

Tail packet : 1405 at the NIC in 8

Tail packet : 1425 at the NIC in 3

Tail packet : 1322 at the NIC in 4

Tail packet : 1377 at the NIC in 7

Tail packet : 1414 at the NIC in 7

Tail packet : 1427 at the NIC in 14

Tail packet : 1408 at the NIC in 1

Tail packet : 1396 at the NIC in 9

Tail packet : 1383 at the NIC in 12


 Head!!! 
Dropping packet : 1387 at the NIC in 8

Tail packet : 1381 at the NIC in 2

Tail packet : 1376 at the NIC in 8

Tail packet : 1367 at the NIC in 12

Tail packet : 1430 at the NIC in 9

Tail packet : 1374 at the NIC in 15

Tail packet : 1392 at the NIC in 7

Tail packet : 1432 at the NIC in 5

Tail packet : 1420 at the NIC in 9

Tail packet : 1403 at the NIC in 4

Tail packet : 1450 at the NIC in 2

Tail packet : 1372 at the NIC in 8

Tail packet : 1416 at the NIC in 1

Tail packet : 1404 at the NIC in 14

Tail packet : 1435 at the NIC in 6

Tail packet : 1361 at the NIC in 7

Tail packet : 1389 at the NIC in 15

Tail packet : 1397 at the NIC in 11

Tail packet : 1438 at the NIC in 5

Tail packet : 1428 at the NIC in 9

Tail packet : 1431 at the NIC in 4

Tail packet : 1335 at the NIC in 1

Tail packet : 1362 at the NIC in 10

Tail packet : 1412 at the NIC in 11

Tail packet : 1418 at the NIC in 15

Tail packet : 1422 at the NIC in 1

Tail packet : 1373 at the NIC in 12

Dropping packet : 1387 at the NIC in 8

Tail packet : 1421 at the NIC in 4

Tail packet : 1411 at the NIC in 2

Dropping packet : 1387 at the NIC in 8

Tail packet : 1388 at the NIC in 15

Tail packet : 1454 at the NIC in 7

Tail packet : 1451 at the NIC in 6

Tail packet : 1409 at the NIC in 14

Tail packet : 1436 at the NIC in 1

Tail packet : 1413 at the NIC in 13

Tail packet : 1353 at the NIC in 12

Tail packet : 1415 at the NIC in 8

Tail packet : 1469 at the NIC in 3

Tail packet : 1354 at the NIC in 0

Tail packet : 1437 at the NIC in 12


Changing destination to : 4 from : 1 for flit : 3434 for packet : 1457 

here in modified routing algorithm

Router id : 5
flit_id : 3434
Input port direction: East
my x : 1
my y : 1
destination_id : 4
destination x : 0
destination y : 1
x hops : 1
y hops : 0
x direction : 0
y direction : 1
Tail packet : 1410 at the NIC in 7

Tail packet : 1424 at the NIC in 15

Tail packet : 1464 at the NIC in 13

Tail packet : 1423 at the NIC in 12

Dropping packet : 1387 at the NIC in 8

Tail packet : 1459 at the NIC in 2

Tail packet : 1402 at the NIC in 3


Changing destination to : 1 from : 5 for flit : 3453 for packet : 1468 

here in modified routing algorithm

Router id : 5
flit_id : 3453
Input port direction: North
my x : 1
my y : 1
destination_id : 1
destination x : 1
destination y : 0
x hops : 0
y hops : 1
x direction : 1
y direction : 0
Tail packet : 1441 at the NIC in 8

Tail packet : 1444 at the NIC in 4


 Rerouted packet : 1457 reached : 4 from : 1 


Tail packet : 1419 at the NIC in 15

Tail packet : 1458 at the NIC in 11

Tail packet : 1485 at the NIC in 13

Tail packet : 1434 at the NIC in 8

Tail packet : 1452 at the NIC in 2

Tail packet : 1446 at the NIC in 13

Tail packet : 1449 at the NIC in 10

Tail packet : 1460 at the NIC in 7

Tail packet : 1490 at the NIC in 11


 Rerouted packet : 1468 reached : 1 from : 5 


Tail packet : 1445 at the NIC in 2


 Head!!! 
Dropping packet : 1457 at the NIC in 4

Tail packet : 1442 at the NIC in 6

Tail packet : 1448 at the NIC in 7

Tail packet : 1453 at the NIC in 1

Tail packet : 1462 at the NIC in 2

Tail packet : 1465 at the NIC in 9

Tail packet : 1472 at the NIC in 6

Tail packet : 1455 at the NIC in 15

Tail packet : 1480 at the NIC in 7

Tail packet : 1470 at the NIC in 6

Tail packet : 1443 at the NIC in 14

Tail packet : 1466 at the NIC in 8

Tail packet : 1495 at the NIC in 14


 Head!!! 
Dropping packet : 1468 at the NIC in 1

Tail packet : 1456 at the NIC in 9

Tail packet : 1483 at the NIC in 13

Tail packet : 1502 at the NIC in 4

Tail packet : 1487 at the NIC in 2

Dropping packet : 1457 at the NIC in 4

Tail packet : 1475 at the NIC in 1

Tail packet : 1479 at the NIC in 15

Tail packet : 1478 at the NIC in 1

Tail packet : 1482 at the NIC in 9

Tail packet : 1471 at the NIC in 13

Tail packet : 1491 at the NIC in 0

Tail packet : 1461 at the NIC in 4

Tail packet : 1503 at the NIC in 2

Tail packet : 1467 at the NIC in 3

Tail packet : 1440 at the NIC in 2

Dropping packet : 1457 at the NIC in 4

Tail packet : 1463 at the NIC in 0

Dropping packet : 1468 at the NIC in 1

Tail packet : 1447 at the NIC in 10

Tail packet : 1512 at the NIC in 11

Dropping packet : 1468 at the NIC in 1

Tail packet : 1473 at the NIC in 0

Tail packet : 1509 at the NIC in 8

Dropping packet : 1457 at the NIC in 4

Tail packet : 1497 at the NIC in 2

Tail packet : 1399 at the NIC in 0

Tail packet : 1429 at the NIC in 12

Dropping packet : 1468 at the NIC in 1

Tail packet : 1494 at the NIC in 6


Changing destination to : 1 from : 7 for flit : 3598 for packet : 1529 

here in modified routing algorithm

Router id : 5
flit_id : 3598
Input port direction: West
my x : 1
my y : 1
destination_id : 1
destination x : 1
destination y : 0
x hops : 0
y hops : 1
x direction : 1
y direction : 0
Tail packet : 1499 at the NIC in 8

Tail packet : 1506 at the NIC in 8

Tail packet : 1484 at the NIC in 11

Tail packet : 1526 at the NIC in 4

Tail packet : 1508 at the NIC in 12

Tail packet : 1476 at the NIC in 15

Tail packet : 1514 at the NIC in 10

Tail packet : 1477 at the NIC in 1

Tail packet : 1493 at the NIC in 9

Tail packet : 1513 at the NIC in 4

Tail packet : 1505 at the NIC in 5

Tail packet : 1481 at the NIC in 9

Tail packet : 1314 at the NIC in 10

Tail packet : 1516 at the NIC in 6

Tail packet : 1518 at the NIC in 15

Tail packet : 1528 at the NIC in 1

Tail packet : 1553 at the NIC in 9

Tail packet : 1489 at the NIC in 2

Tail packet : 1541 at the NIC in 9

Tail packet : 1560 at the NIC in 15

Tail packet : 1523 at the NIC in 14

Tail packet : 1531 at the NIC in 1

Tail packet : 1537 at the NIC in 13

Tail packet : 1546 at the NIC in 12

Tail packet : 1521 at the NIC in 0

Tail packet : 1492 at the NIC in 0

Tail packet : 1536 at the NIC in 13

Tail packet : 1500 at the NIC in 9

Tail packet : 1488 at the NIC in 15

Tail packet : 1558 at the NIC in 11

Tail packet : 1504 at the NIC in 12

Tail packet : 1555 at the NIC in 7

Tail packet : 1511 at the NIC in 11


Changing destination to : 13 from : 14 for flit : 3678 for packet : 1569 

here in modified routing algorithm

Router id : 5
flit_id : 3678
Input port direction: West
my x : 1
my y : 1
destination_id : 13
destination x : 1
destination y : 3
x hops : 0
y hops : 2
x direction : 1
y direction : 1
Tail packet : 1538 at the NIC in 9

Tail packet : 1501 at the NIC in 3

Tail packet : 1548 at the NIC in 13

Tail packet : 1524 at the NIC in 6

Tail packet : 1551 at the NIC in 9

Tail packet : 1563 at the NIC in 13

Tail packet : 1540 at the NIC in 2

Tail packet : 1581 at the NIC in 3

Tail packet : 1386 at the NIC in 10

Tail packet : 1535 at the NIC in 7

Tail packet : 1532 at the NIC in 14

Tail packet : 1565 at the NIC in 10

Tail packet : 1533 at the NIC in 12

Tail packet : 1547 at the NIC in 4

Tail packet : 1549 at the NIC in 3

Tail packet : 1527 at the NIC in 4

Tail packet : 1594 at the NIC in 15

Tail packet : 1542 at the NIC in 14

Tail packet : 1557 at the NIC in 9

Tail packet : 1498 at the NIC in 12

Tail packet : 1570 at the NIC in 2

Tail packet : 1510 at the NIC in 2

Tail packet : 1556 at the NIC in 4

Tail packet : 1520 at the NIC in 0

Tail packet : 1572 at the NIC in 9

Tail packet : 1562 at the NIC in 7

Tail packet : 1567 at the NIC in 7

Tail packet : 1597 at the NIC in 13

Tail packet : 1582 at the NIC in 8

Tail packet : 1534 at the NIC in 2

Tail packet : 1539 at the NIC in 13

Tail packet : 1544 at the NIC in 14

Tail packet : 1552 at the NIC in 11

Tail packet : 1606 at the NIC in 15

Tail packet : 1587 at the NIC in 5

Tail packet : 1554 at the NIC in 2

Tail packet : 1576 at the NIC in 9

Tail packet : 1575 at the NIC in 5

Tail packet : 1586 at the NIC in 2

Tail packet : 1574 at the NIC in 14

Tail packet : 1603 at the NIC in 0

Tail packet : 1588 at the NIC in 4

Tail packet : 1571 at the NIC in 11

Tail packet : 1612 at the NIC in 6

Tail packet : 1433 at the NIC in 14

Tail packet : 1609 at the NIC in 12

Tail packet : 1580 at the NIC in 8

Tail packet : 1595 at the NIC in 9

Tail packet : 1578 at the NIC in 15

Tail packet : 1564 at the NIC in 0

Tail packet : 1566 at the NIC in 15

Tail packet : 1618 at the NIC in 9

Tail packet : 1615 at the NIC in 13

Tail packet : 1600 at the NIC in 12

Tail packet : 1559 at the NIC in 4

Tail packet : 1584 at the NIC in 13

Tail packet : 1623 at the NIC in 10

Tail packet : 1577 at the NIC in 5

Tail packet : 1573 at the NIC in 12

Tail packet : 1616 at the NIC in 14

Tail packet : 1599 at the NIC in 15


Changing destination to : 9 from : 13 for flit : 3718 for packet : 1589 

here in modified routing algorithm

Router id : 5
flit_id : 3718
Input port direction: East
my x : 1
my y : 1
destination_id : 9
destination x : 1
destination y : 2
x hops : 0
y hops : 1
x direction : 1
y direction : 1
Tail packet : 1598 at the NIC in 12

Tail packet : 1585 at the NIC in 12

Tail packet : 1613 at the NIC in 13

Tail packet : 1617 at the NIC in 11

Tail packet : 1596 at the NIC in 2

Tail packet : 1605 at the NIC in 4

Tail packet : 1568 at the NIC in 11

Tail packet : 1636 at the NIC in 14

Tail packet : 1631 at the NIC in 10

Tail packet : 1590 at the NIC in 0

Tail packet : 1640 at the NIC in 4

Tail packet : 1607 at the NIC in 3

Tail packet : 1583 at the NIC in 3

Tail packet : 1608 at the NIC in 14

Tail packet : 1645 at the NIC in 15

Tail packet : 1614 at the NIC in 14

Tail packet : 1629 at the NIC in 9

Tail packet : 1517 at the NIC in 0

Tail packet : 1610 at the NIC in 3

Tail packet : 1319 at the NIC in 14

Tail packet : 1622 at the NIC in 7

Tail packet : 1602 at the NIC in 11

Tail packet : 1646 at the NIC in 10

Tail packet : 1665 at the NIC in 0

Tail packet : 1625 at the NIC in 9

Tail packet : 1561 at the NIC in 11

Tail packet : 1628 at the NIC in 14

Tail packet : 1661 at the NIC in 7

Tail packet : 1639 at the NIC in 8

Tail packet : 1637 at the NIC in 2

Tail packet : 1680 at the NIC in 3

Tail packet : 1634 at the NIC in 4

Tail packet : 1638 at the NIC in 10

Tail packet : 1619 at the NIC in 11

Tail packet : 1672 at the NIC in 11

Tail packet : 1668 at the NIC in 5

Tail packet : 1656 at the NIC in 9

Tail packet : 1627 at the NIC in 13

Tail packet : 1633 at the NIC in 0

Tail packet : 1671 at the NIC in 3

Tail packet : 1643 at the NIC in 13

Tail packet : 1626 at the NIC in 7

Tail packet : 1647 at the NIC in 6

Tail packet : 1666 at the NIC in 14

Tail packet : 1695 at the NIC in 10

Tail packet : 1658 at the NIC in 9

Tail packet : 1635 at the NIC in 4

Tail packet : 1664 at the NIC in 9

Tail packet : 1659 at the NIC in 11

Tail packet : 1676 at the NIC in 7

Tail packet : 1657 at the NIC in 10

Tail packet : 1685 at the NIC in 0

Tail packet : 1701 at the NIC in 4

Tail packet : 1591 at the NIC in 2

Tail packet : 1653 at the NIC in 0

Tail packet : 1649 at the NIC in 5

Tail packet : 1655 at the NIC in 1

Tail packet : 1611 at the NIC in 14

Tail packet : 1652 at the NIC in 7

Tail packet : 1681 at the NIC in 14

Tail packet : 1654 at the NIC in 1

Tail packet : 1709 at the NIC in 12

Tail packet : 1678 at the NIC in 8

Tail packet : 1641 at the NIC in 1

Tail packet : 1689 at the NIC in 15

Tail packet : 1670 at the NIC in 7

Tail packet : 1688 at the NIC in 10

Tail packet : 1677 at the NIC in 1

Tail packet : 1691 at the NIC in 2

Tail packet : 1621 at the NIC in 6

Tail packet : 1683 at the NIC in 3

Tail packet : 1632 at the NIC in 4

Tail packet : 1693 at the NIC in 11

Tail packet : 1630 at the NIC in 0

Tail packet : 1684 at the NIC in 8

Tail packet : 1674 at the NIC in 6

Tail packet : 1673 at the NIC in 7

Tail packet : 1713 at the NIC in 11

Tail packet : 1697 at the NIC in 10

Tail packet : 1662 at the NIC in 12

Tail packet : 1525 at the NIC in 0

Tail packet : 1696 at the NIC in 2

Tail packet : 1642 at the NIC in 4

Tail packet : 1675 at the NIC in 11

Tail packet : 1704 at the NIC in 6

Tail packet : 1730 at the NIC in 14

Tail packet : 1700 at the NIC in 1

Tail packet : 1717 at the NIC in 13

Tail packet : 1686 at the NIC in 0

Tail packet : 1690 at the NIC in 2

Tail packet : 1648 at the NIC in 14

Tail packet : 1650 at the NIC in 6

Tail packet : 1679 at the NIC in 15

Tail packet : 1734 at the NIC in 1

Tail packet : 1721 at the NIC in 4

Tail packet : 1710 at the NIC in 2

Tail packet : 1705 at the NIC in 4

Tail packet : 1620 at the NIC in 14

Tail packet : 1711 at the NIC in 1

Tail packet : 1712 at the NIC in 13

Tail packet : 1669 at the NIC in 3

Tail packet : 1707 at the NIC in 7

Tail packet : 1720 at the NIC in 6

Tail packet : 1723 at the NIC in 14

Tail packet : 1715 at the NIC in 5

Tail packet : 1724 at the NIC in 9

Tail packet : 1714 at the NIC in 12

Tail packet : 1706 at the NIC in 0

Tail packet : 1750 at the NIC in 15

Tail packet : 1699 at the NIC in 0

Tail packet : 1728 at the NIC in 1

Tail packet : 1729 at the NIC in 7

Tail packet : 1702 at the NIC in 6

Tail packet : 1749 at the NIC in 10

Tail packet : 1735 at the NIC in 1

Tail packet : 1726 at the NIC in 3

Tail packet : 1727 at the NIC in 8

Tail packet : 1698 at the NIC in 10

Tail packet : 1703 at the NIC in 7

Tail packet : 1738 at the NIC in 13

Tail packet : 1743 at the NIC in 8

Tail packet : 1722 at the NIC in 2

Tail packet : 1732 at the NIC in 7

Tail packet : 1748 at the NIC in 10

Tail packet : 1747 at the NIC in 0

Tail packet : 1757 at the NIC in 2

Tail packet : 1752 at the NIC in 7

Tail packet : 1763 at the NIC in 9

Tail packet : 1731 at the NIC in 0

Tail packet : 1744 at the NIC in 8

Tail packet : 1742 at the NIC in 4

Tail packet : 1725 at the NIC in 8

Tail packet : 1777 at the NIC in 7

Tail packet : 1768 at the NIC in 14

Tail packet : 1753 at the NIC in 1

Tail packet : 1773 at the NIC in 5

Tail packet : 1692 at the NIC in 4

Tail packet : 1765 at the NIC in 14

Tail packet : 1762 at the NIC in 10

Tail packet : 1780 at the NIC in 12

Tail packet : 1761 at the NIC in 3

Tail packet : 1663 at the NIC in 0

Tail packet : 1758 at the NIC in 14

Tail packet : 1733 at the NIC in 6

Tail packet : 1754 at the NIC in 14

Tail packet : 1788 at the NIC in 10

Tail packet : 1771 at the NIC in 1

Tail packet : 1756 at the NIC in 2

[...]

Tail packet : 21305 at the NIC in 2

Tail packet : 21314 at the NIC in 3

Tail packet : 21313 at the NIC in 9

Tail packet : 21307 at the NIC in 11

Tail packet : 21320 at the NIC in 10

Tail packet : 21310 at the NIC in 0

Tail packet : 21338 at the NIC in 6

Tail packet : 21325 at the NIC in 0

Tail packet : 21333 at the NIC in 6

Tail packet : 21340 at the NIC in 1

Tail packet : 21345 at the NIC in 12

Tail packet : 21330 at the NIC in 2

Tail packet : 21339 at the NIC in 2

Tail packet : 21349 at the NIC in 7

Tail packet : 21341 at the NIC in 6

Tail packet : 21337 at the NIC in 14

Tail packet : 21336 at the NIC in 5

Tail packet : 21317 at the NIC in 12

Tail packet : 21342 at the NIC in 1

Tail packet : 21329 at the NIC in 13

Tail packet : 21352 at the NIC in 12

Tail packet : 21362 at the NIC in 4

Tail packet : 21315 at the NIC in 3

Tail packet : 21363 at the NIC in 12

Tail packet : 21348 at the NIC in 1

Tail packet : 21370 at the NIC in 8

Tail packet : 21326 at the NIC in 2

Tail packet : 21327 at the NIC in 3

Tail packet : 21350 at the NIC in 8

Tail packet : 21335 at the NIC in 7

Tail packet : 21332 at the NIC in 7

Tail packet : 21354 at the NIC in 5

Tail packet : 21344 at the NIC in 9

Tail packet : 21331 at the NIC in 0

Tail packet : 21361 at the NIC in 3

Tail packet : 21328 at the NIC in 3

Tail packet : 21334 at the NIC in 15

Tail packet : 21367 at the NIC in 6

Tail packet : 21346 at the NIC in 10

Tail packet : 21347 at the NIC in 1

Tail packet : 21365 at the NIC in 13

Tail packet : 21355 at the NIC in 2

Tail packet : 21356 at the NIC in 2

Tail packet : 21359 at the NIC in 10

Tail packet : 21357 at the NIC in 6

Tail packet : 21353 at the NIC in 6

Tail packet : 21364 at the NIC in 10

Tail packet : 21371 at the NIC in 5

Tail packet : 21343 at the NIC in 12

Tail packet : 21373 at the NIC in 10

Tail packet : 21375 at the NIC in 1

Tail packet : 21366 at the NIC in 9

Tail packet : 21358 at the NIC in 3

Tail packet : 21360 at the NIC in 15

Tail packet : 21351 at the NIC in 12

Tail packet : 21376 at the NIC in 5

Tail packet : 21374 at the NIC in 3

Tail packet : 21383 at the NIC in 12

Tail packet : 21368 at the NIC in 11

Tail packet : 21386 at the NIC in 6

Tail packet : 21388 at the NIC in 12

Tail packet : 21381 at the NIC in 8

Tail packet : 21369 at the NIC in 3

Tail packet : 21377 at the NIC in 6

Tail packet : 21378 at the NIC in 8

Tail packet : 21380 at the NIC in 10

Tail packet : 21391 at the NIC in 9

Tail packet : 21382 at the NIC in 2

Tail packet : 21372 at the NIC in 15

Tail packet : 21384 at the NIC in 7

Tail packet : 21385 at the NIC in 10

Tail packet : 21398 at the NIC in 8

Tail packet : 21396 at the NIC in 2

Tail packet : 21390 at the NIC in 7

Tail packet : 21407 at the NIC in 7

Tail packet : 21404 at the NIC in 11

Tail packet : 21395 at the NIC in 7

Tail packet : 21397 at the NIC in 0

Tail packet : 21379 at the NIC in 11

Tail packet : 21422 at the NIC in 14

Tail packet : 21393 at the NIC in 1

Tail packet : 21405 at the NIC in 12

Tail packet : 21414 at the NIC in 8

Tail packet : 21389 at the NIC in 4

Tail packet : 21401 at the NIC in 4

Tail packet : 21424 at the NIC in 7

Tail packet : 21400 at the NIC in 6

Tail packet : 21409 at the NIC in 1

Tail packet : 21410 at the NIC in 12

Tail packet : 21406 at the NIC in 3

Tail packet : 21394 at the NIC in 15

Tail packet : 21413 at the NIC in 7

Tail packet : 21403 at the NIC in 14

Tail packet : 21411 at the NIC in 1

Tail packet : 21408 at the NIC in 1

Tail packet : 21417 at the NIC in 13

Tail packet : 21387 at the NIC in 0

Tail packet : 21392 at the NIC in 15

Tail packet : 21419 at the NIC in 10

Tail packet : 21443 at the NIC in 5

Tail packet : 21402 at the NIC in 12

Tail packet : 21430 at the NIC in 4

Tail packet : 21399 at the NIC in 15

Tail packet : 21423 at the NIC in 7

Tail packet : 21436 at the NIC in 1

Tail packet : 21432 at the NIC in 5

Tail packet : 21415 at the NIC in 8

Tail packet : 21416 at the NIC in 4

Tail packet : 21428 at the NIC in 11

Tail packet : 21421 at the NIC in 1

Tail packet : 21429 at the NIC in 8

Tail packet : 21418 at the NIC in 7

Tail packet : 21426 at the NIC in 6

Tail packet : 21434 at the NIC in 12

Tail packet : 21431 at the NIC in 14

Tail packet : 21440 at the NIC in 6

Tail packet : 21441 at the NIC in 14

Tail packet : 21442 at the NIC in 1

Tail packet : 21444 at the NIC in 4

Tail packet : 21450 at the NIC in 2

Tail packet : 21439 at the NIC in 11

Tail packet : 21437 at the NIC in 7

Tail packet : 21438 at the NIC in 10

Tail packet : 21435 at the NIC in 5

Tail packet : 21463 at the NIC in 12

Tail packet : 21433 at the NIC in 3

Tail packet : 21427 at the NIC in 7

Tail packet : 21452 at the NIC in 14

Tail packet : 21448 at the NIC in 9

Tail packet : 21420 at the NIC in 12

Tail packet : 21412 at the NIC in 12

Tail packet : 21446 at the NIC in 8

Tail packet : 21466 at the NIC in 6

Tail packet : 21447 at the NIC in 4

Tail packet : 21460 at the NIC in 2

Tail packet : 21461 at the NIC in 4

Tail packet : 21454 at the NIC in 6

Tail packet : 21469 at the NIC in 5

Tail packet : 21425 at the NIC in 0

Tail packet : 21462 at the NIC in 2

Tail packet : 21445 at the NIC in 3

Tail packet : 21467 at the NIC in 5

Tail packet : 21468 at the NIC in 9

Tail packet : 21449 at the NIC in 8

Tail packet : 21459 at the NIC in 8

Tail packet : 21476 at the NIC in 15

Tail packet : 21455 at the NIC in 1

Tail packet : 21453 at the NIC in 12

Tail packet : 21473 at the NIC in 8

Tail packet : 21478 at the NIC in 3

Tail packet : 21456 at the NIC in 8

Tail packet : 21458 at the NIC in 6

Tail packet : 21474 at the NIC in 13

Tail packet : 21451 at the NIC in 14

Tail packet : 21457 at the NIC in 15

Tail packet : 21470 at the NIC in 6

Tail packet : 21464 at the NIC in 2

Tail packet : 21484 at the NIC in 3

Tail packet : 21480 at the NIC in 15

Tail packet : 21488 at the NIC in 14

Tail packet : 21465 at the NIC in 12

Tail packet : 21471 at the NIC in 2

Tail packet : 21481 at the NIC in 14

Tail packet : 21485 at the NIC in 10

Tail packet : 21486 at the NIC in 1

Tail packet : 21477 at the NIC in 9

Tail packet : 21487 at the NIC in 13

Tail packet : 21512 at the NIC in 15

Tail packet : 21499 at the NIC in 7

Tail packet : 21501 at the NIC in 4

Tail packet : 21475 at the NIC in 7

Tail packet : 21493 at the NIC in 6

Tail packet : 21494 at the NIC in 10

Tail packet : 21506 at the NIC in 9

Tail packet : 21482 at the NIC in 2

Tail packet : 21497 at the NIC in 10

Tail packet : 21492 at the NIC in 1

Tail packet : 21490 at the NIC in 3

Tail packet : 21472 at the NIC in 3

Tail packet : 21498 at the NIC in 1

Tail packet : 21515 at the NIC in 11

Tail packet : 21483 at the NIC in 11

Tail packet : 21500 at the NIC in 15

Tail packet : 21511 at the NIC in 13

Tail packet : 21489 at the NIC in 8

Tail packet : 21491 at the NIC in 4

Tail packet : 21510 at the NIC in 7

Tail packet : 21479 at the NIC in 15

Tail packet : 21529 at the NIC in 15

Tail packet : 21504 at the NIC in 11

Tail packet : 21502 at the NIC in 7

Tail packet : 21496 at the NIC in 5

Tail packet : 21530 at the NIC in 9

Tail packet : 21495 at the NIC in 0

Tail packet : 21517 at the NIC in 4

Tail packet : 21503 at the NIC in 4

Tail packet : 21514 at the NIC in 9

Tail packet : 21535 at the NIC in 15

Tail packet : 21533 at the NIC in 7

Tail packet : 21543 at the NIC in 14

Tail packet : 21513 at the NIC in 9

Tail packet : 21519 at the NIC in 3

Tail packet : 21540 at the NIC in 15

Tail packet : 21527 at the NIC in 11

Tail packet : 21538 at the NIC in 2

Tail packet : 21546 at the NIC in 3

Tail packet : 21505 at the NIC in 8

Tail packet : 21551 at the NIC in 15

Tail packet : 21542 at the NIC in 6

Tail packet : 21509 at the NIC in 4

Tail packet : 21516 at the NIC in 11

Tail packet : 21536 at the NIC in 6

Tail packet : 21525 at the NIC in 10

Tail packet : 21526 at the NIC in 9

Tail packet : 21549 at the NIC in 12

Tail packet : 21523 at the NIC in 2

Tail packet : 21528 at the NIC in 3

Tail packet : 21508 at the NIC in 3

Tail packet : 21521 at the NIC in 15

Tail packet : 21553 at the NIC in 13

Tail packet : 21550 at the NIC in 12

Tail packet : 21534 at the NIC in 8

Tail packet : 21520 at the NIC in 4

Tail packet : 21544 at the NIC in 13

Tail packet : 21518 at the NIC in 11

Tail packet : 21539 at the NIC in 6

Tail packet : 21524 at the NIC in 0

Tail packet : 21507 at the NIC in 3

Tail packet : 21522 at the NIC in 11

Tail packet : 21531 at the NIC in 11

Tail packet : 21560 at the NIC in 6

Tail packet : 21552 at the NIC in 0

Tail packet : 21532 at the NIC in 2

Tail packet : 21541 at the NIC in 3

Tail packet : 21548 at the NIC in 11

Tail packet : 21563 at the NIC in 6

Tail packet : 21554 at the NIC in 14

Tail packet : 21537 at the NIC in 12

Tail packet : 21556 at the NIC in 8

Tail packet : 21545 at the NIC in 12

Tail packet : 21562 at the NIC in 11

Tail packet : 21577 at the NIC in 7

Tail packet : 21567 at the NIC in 1

Tail packet : 21559 at the NIC in 9

Tail packet : 21561 at the NIC in 13

Tail packet : 21566 at the NIC in 8

Tail packet : 21569 at the NIC in 7

Tail packet : 21565 at the NIC in 11

Tail packet : 21583 at the NIC in 10

Tail packet : 21576 at the NIC in 8

Tail packet : 21555 at the NIC in 4

Tail packet : 21573 at the NIC in 10

Tail packet : 21571 at the NIC in 1

Tail packet : 21572 at the NIC in 3

Tail packet : 21547 at the NIC in 1

Tail packet : 21557 at the NIC in 1

Tail packet : 21585 at the NIC in 0

Tail packet : 21568 at the NIC in 3

Tail packet : 21580 at the NIC in 0

Tail packet : 21587 at the NIC in 15

Tail packet : 21589 at the NIC in 5

Tail packet : 21575 at the NIC in 0

Tail packet : 21564 at the NIC in 8

Tail packet : 21574 at the NIC in 4

Tail packet : 21582 at the NIC in 3

Tail packet : 21570 at the NIC in 15

Tail packet : 21604 at the NIC in 6

Tail packet : 21579 at the NIC in 12

Tail packet : 21578 at the NIC in 4

Tail packet : 21586 at the NIC in 2

Tail packet : 21594 at the NIC in 3

Tail packet : 21581 at the NIC in 7

Tail packet : 21592 at the NIC in 12

Tail packet : 21558 at the NIC in 3

Tail packet : 21612 at the NIC in 7

Tail packet : 21593 at the NIC in 14

Tail packet : 21606 at the NIC in 8

Tail packet : 21596 at the NIC in 4

Tail packet : 21602 at the NIC in 6

Tail packet : 21599 at the NIC in 10

Tail packet : 21611 at the NIC in 5

Tail packet : 21584 at the NIC in 3

Tail packet : 21597 at the NIC in 11

Tail packet : 21614 at the NIC in 7

Tail packet : 21615 at the NIC in 13

Tail packet : 21595 at the NIC in 13

Tail packet : 21600 at the NIC in 15

Tail packet : 21608 at the NIC in 6

Tail packet : 21590 at the NIC in 9

Tail packet : 21591 at the NIC in 13

Tail packet : 21588 at the NIC in 8

Tail packet : 21601 at the NIC in 3

Tail packet : 21613 at the NIC in 1

Tail packet : 21629 at the NIC in 12

Tail packet : 21605 at the NIC in 12

Tail packet : 21609 at the NIC in 11

Tail packet : 21610 at the NIC in 1

Tail packet : 21617 at the NIC in 1

Tail packet : 21598 at the NIC in 11

Tail packet : 21616 at the NIC in 10

Tail packet : 21618 at the NIC in 1

Tail packet : 21603 at the NIC in 8

Tail packet : 21619 at the NIC in 6

Tail packet : 21634 at the NIC in 14

Tail packet : 21631 at the NIC in 0

Tail packet : 21633 at the NIC in 3

Tail packet : 21630 at the NIC in 10

Tail packet : 21607 at the NIC in 3

Tail packet : 21637 at the NIC in 11

Tail packet : 21620 at the NIC in 7

Tail packet : 21632 at the NIC in 10

Tail packet : 21624 at the NIC in 3

Tail packet : 21636 at the NIC in 10

Tail packet : 21626 at the NIC in 6

Tail packet : 21623 at the NIC in 11

Tail packet : 21621 at the NIC in 1

Tail packet : 21654 at the NIC in 13

Tail packet : 21638 at the NIC in 12

Tail packet : 21628 at the NIC in 2

Tail packet : 21646 at the NIC in 2

Tail packet : 21652 at the NIC in 11

Tail packet : 21649 at the NIC in 7

Tail packet : 21625 at the NIC in 14

Tail packet : 21622 at the NIC in 12

Tail packet : 21643 at the NIC in 0

Tail packet : 21648 at the NIC in 2

Tail packet : 21627 at the NIC in 2

Tail packet : 21644 at the NIC in 15

Tail packet : 21665 at the NIC in 7

Tail packet : 21635 at the NIC in 14

Tail packet : 21658 at the NIC in 13

Tail packet : 21653 at the NIC in 8

Tail packet : 21645 at the NIC in 6

Tail packet : 21639 at the NIC in 10

Tail packet : 21667 at the NIC in 1

Tail packet : 21657 at the NIC in 12

Tail packet : 21647 at the NIC in 0

Tail packet : 21640 at the NIC in 3

Tail packet : 21650 at the NIC in 1

Tail packet : 21642 at the NIC in 13

Tail packet : 21668 at the NIC in 12

Tail packet : 21641 at the NIC in 1

Tail packet : 21671 at the NIC in 10

Tail packet : 21656 at the NIC in 1

Tail packet : 21655 at the NIC in 1

Tail packet : 21661 at the NIC in 6

Tail packet : 21669 at the NIC in 14

Tail packet : 21663 at the NIC in 0

Tail packet : 21651 at the NIC in 4

Tail packet : 21660 at the NIC in 9

Tail packet : 21664 at the NIC in 2

Tail packet : 21676 at the NIC in 13

Tail packet : 21659 at the NIC in 4

Tail packet : 21679 at the NIC in 11

Tail packet : 21698 at the NIC in 6

Tail packet : 21688 at the NIC in 10

Tail packet : 21678 at the NIC in 5

Tail packet : 21689 at the NIC in 13

Tail packet : 21666 at the NIC in 12

Tail packet : 21677 at the NIC in 6

Tail packet : 21670 at the NIC in 1

Tail packet : 21674 at the NIC in 8

Tail packet : 21675 at the NIC in 4

Tail packet : 21662 at the NIC in 0

Tail packet : 21696 at the NIC in 15

Tail packet : 21686 at the NIC in 11

Tail packet : 21699 at the NIC in 9

Tail packet : 21683 at the NIC in 12

Tail packet : 21684 at the NIC in 8

Tail packet : 21672 at the NIC in 11

Tail packet : 21697 at the NIC in 11

Tail packet : 21680 at the NIC in 7

Tail packet : 21681 at the NIC in 5

Tail packet : 21705 at the NIC in 2

Tail packet : 21682 at the NIC in 7

Tail packet : 21704 at the NIC in 9

Tail packet : 21690 at the NIC in 8

Tail packet : 21673 at the NIC in 15

Tail packet : 21695 at the NIC in 7

Tail packet : 21712 at the NIC in 14

Tail packet : 21707 at the NIC in 10

Tail packet : 21685 at the NIC in 4

Tail packet : 21694 at the NIC in 15

Tail packet : 21714 at the NIC in 11

Tail packet : 21693 at the NIC in 7

Tail packet : 21692 at the NIC in 1

Tail packet : 21701 at the NIC in 5

Tail packet : 21708 at the NIC in 9

Tail packet : 21691 at the NIC in 7

Tail packet : 21700 at the NIC in 11

Tail packet : 21687 at the NIC in 4

Tail packet : 21711 at the NIC in 4

Tail packet : 21703 at the NIC in 7

Tail packet : 21710 at the NIC in 14

Tail packet : 21728 at the NIC in 10

Tail packet : 21718 at the NIC in 1

Tail packet : 21709 at the NIC in 12

Tail packet : 21702 at the NIC in 8

Tail packet : 21727 at the NIC in 6

Tail packet : 21719 at the NIC in 5

Tail packet : 21721 at the NIC in 12

Tail packet : 21723 at the NIC in 11

Tail packet : 21706 at the NIC in 14

Tail packet : 21724 at the NIC in 8

Tail packet : 21716 at the NIC in 4

Tail packet : 21732 at the NIC in 3

Tail packet : 21730 at the NIC in 7

Tail packet : 21725 at the NIC in 1

Tail packet : 21729 at the NIC in 9

Tail packet : 21748 at the NIC in 12

Tail packet : 21726 at the NIC in 9

Tail packet : 21731 at the NIC in 5

Tail packet : 21734 at the NIC in 4

Tail packet : 21715 at the NIC in 12

Tail packet : 21720 at the NIC in 15

Tail packet : 21713 at the NIC in 0

Tail packet : 21735 at the NIC in 6

Tail packet : 21722 at the NIC in 4

Tail packet : 21717 at the NIC in 15

Tail packet : 21747 at the NIC in 2

Tail packet : 21758 at the NIC in 7

Tail packet : 21751 at the NIC in 11

Tail packet : 21737 at the NIC in 6

Tail packet : 21749 at the NIC in 4

Tail packet : 21774 at the NIC in 2

Tail packet : 21754 at the NIC in 11

Tail packet : 21756 at the NIC in 6

Tail packet : 21755 at the NIC in 10

Tail packet : 21757 at the NIC in 9

Tail packet : 21740 at the NIC in 13

Tail packet : 21767 at the NIC in 12

Tail packet : 21743 at the NIC in 0

Tail packet : 21736 at the NIC in 3

Tail packet : 21763 at the NIC in 10

Tail packet : 21739 at the NIC in 1

Tail packet : 21766 at the NIC in 9

Tail packet : 21733 at the NIC in 13

Tail packet : 21750 at the NIC in 12

Tail packet : 21765 at the NIC in 8

Tail packet : 21752 at the NIC in 12

Tail packet : 21769 at the NIC in 6

Tail packet : 21768 at the NIC in 5

Tail packet : 21745 at the NIC in 12

Tail packet : 21770 at the NIC in 0

Tail packet : 21759 at the NIC in 2

Tail packet : 21741 at the NIC in 13

Tail packet : 21744 at the NIC in 5

Tail packet : 21761 at the NIC in 10

Tail packet : 21776 at the NIC in 9

Tail packet : 21764 at the NIC in 13

Tail packet : 21738 at the NIC in 0

Tail packet : 21775 at the NIC in 8

Tail packet : 21762 at the NIC in 11

Tail packet : 21746 at the NIC in 14

Tail packet : 21771 at the NIC in 2

Tail packet : 21742 at the NIC in 12

Tail packet : 21777 at the NIC in 1

Tail packet : 21788 at the NIC in 10

Tail packet : 21773 at the NIC in 2

Tail packet : 21760 at the NIC in 3

Tail packet : 21753 at the NIC in 2

Tail packet : 21772 at the NIC in 15

Tail packet : 21792 at the NIC in 7

Tail packet : 21783 at the NIC in 5

Tail packet : 21785 at the NIC in 7

Tail packet : 21780 at the NIC in 13

Tail packet : 21778 at the NIC in 7

Tail packet : 21800 at the NIC in 7

Tail packet : 21793 at the NIC in 5

Tail packet : 21782 at the NIC in 9

Tail packet : 21794 at the NIC in 2

Tail packet : 21790 at the NIC in 5

Tail packet : 21781 at the NIC in 11

Tail packet : 21801 at the NIC in 10

Tail packet : 21803 at the NIC in 1

Tail packet : 21798 at the NIC in 13

Tail packet : 21779 at the NIC in 4

Tail packet : 21812 at the NIC in 3

Tail packet : 21802 at the NIC in 1

Tail packet : 21795 at the NIC in 14

Tail packet : 21809 at the NIC in 10

Tail packet : 21789 at the NIC in 9

Tail packet : 21784 at the NIC in 9

Tail packet : 21787 at the NIC in 7

Tail packet : 21797 at the NIC in 12

Tail packet : 21786 at the NIC in 0

Tail packet : 21814 at the NIC in 8

Tail packet : 21791 at the NIC in 4

Tail packet : 21796 at the NIC in 13

Tail packet : 21811 at the NIC in 4

Tail packet : 21807 at the NIC in 7

Tail packet : 21824 at the NIC in 6

Tail packet : 21815 at the NIC in 13

Tail packet : 21799 at the NIC in 0

Tail packet : 21822 at the NIC in 9

Tail packet : 21816 at the NIC in 10

Tail packet : 21818 at the NIC in 1

Tail packet : 21820 at the NIC in 5

Tail packet : 21817 at the NIC in 0

Tail packet : 21806 at the NIC in 11

Tail packet : 21821 at the NIC in 14

Tail packet : 21810 at the NIC in 10

Tail packet : 21805 at the NIC in 7

Tail packet : 21804 at the NIC in 0

Tail packet : 21819 at the NIC in 8

Tail packet : 21823 at the NIC in 11

Tail packet : 21808 at the NIC in 1

Tail packet : 21826 at the NIC in 0

Tail packet : 21825 at the NIC in 12

Tail packet : 21813 at the NIC in 14

Tail packet : 21833 at the NIC in 11

Tail packet : 21840 at the NIC in 12

Tail packet : 21827 at the NIC in 3

Tail packet : 21835 at the NIC in 3

Tail packet : 21829 at the NIC in 1

Tail packet : 21849 at the NIC in 13

Tail packet : 21838 at the NIC in 0

Tail packet : 21844 at the NIC in 4

Tail packet : 21828 at the NIC in 2

Tail packet : 21851 at the NIC in 3

Tail packet : 21858 at the NIC in 15

Tail packet : 21831 at the NIC in 6

Tail packet : 21841 at the NIC in 10

Tail packet : 21834 at the NIC in 12

Tail packet : 21830 at the NIC in 15

Tail packet : 21845 at the NIC in 14

Tail packet : 21853 at the NIC in 5

Tail packet : 21855 at the NIC in 4

Tail packet : 21846 at the NIC in 5

Tail packet : 21857 at the NIC in 11

Tail packet : 21832 at the NIC in 13

Tail packet : 21836 at the NIC in 4

Tail packet : 21860 at the NIC in 13

Exiting @ tick 5000000 because Network Tester completed simCycles
