Global frequency set at 1000000000000 ticks per second
gem5 Simulator System.  https://www.gem5.org
gem5 is copyrighted software; use the --copyright option for details.

gem5 version 22.1.0.0
gem5 compiled Jul 13 2023 14:05:22
gem5 started Jul 13 2023 14:07:27
gem5 executing on adwaith-HP-ProDesk-600-G5-PCI-MT, pid 502590
command line: build/X86/gem5.opt configs/example/garnet_synth_traffic.py --num-cpus=16 --network=garnet --topology=Mesh_XY --routing-algorithm=1 --mesh-rows=4 --router-latency=3 --injectionrate=0.4 --sim-cycles=500000 --num-dirs=16

pushing into pending acknowledgement at NIC : 14 packet id : 0
pushing into pending acknowledgement at NIC : 13 packet id : 1
pushing into pending acknowledgement at NIC : 12 packet id : 2
pushing into pending acknowledgement at NIC : 11 packet id : 3
pushing into pending acknowledgement at NIC : 4 packet id : 4
pushing into pending acknowledgement at NIC : 2 packet id : 5
pushing into pending acknowledgement at NIC : 11 packet id : 6
pushing into pending acknowledgement at NIC : 1 packet id : 7
pushing into pending acknowledgement at NIC : 6 packet id : 8
pushing into pending acknowledgement at NIC : 7 packet id : 9
pushing into pending acknowledgement at NIC : 8 packet id : 10
pushing into pending acknowledgement at NIC : 9 packet id : 11
pushing into pending acknowledgement at NIC : 10 packet id : 12
pushing into pending acknowledgement at NIC : 11 packet id : 13
pushing into pending acknowledgement at NIC : 10 packet id : 14
pushing into pending acknowledgement at NIC : 8 packet id : 15
pushing into pending acknowledgement at NIC : 6 packet id : 16
pushing into pending acknowledgement at NIC : 1 packet id : 17
pushing into pending acknowledgement at NIC : 15 packet id : 18
pushing into pending acknowledgement at NIC : 4 packet id : 19
pushing into pending acknowledgement at NIC : 11 packet id : 20
pushing into pending acknowledgement at NIC : 12 packet id : 21
pushing into pending acknowledgement at NIC : 13 packet id : 22
pushing into pending acknowledgement at NIC : 4 packet id : 23
pushing into pending acknowledgement at NIC : 5 packet id : 24
pushing into pending acknowledgement at NIC : 3 packet id : 25
pushing into pending acknowledgement at NIC : 0 packet id : 26
pushing into pending acknowledgement at NIC : 11 packet id : 27
pushing into pending acknowledgement at NIC : 7 packet id : 28
pushing into pending acknowledgement at NIC : 4 packet id : 29
pushing into pending acknowledgement at NIC : 12 packet id : 30

 Original flit : [flit:: PacketId=2 Id=0 Type=3 Size=1 Vnet=1 VC=4 Src NI=12 Src Router=12 Dest NI=24 Dest Router=8 Set Time=6500 Width=16 ]
 Original flit : [flit:: PacketId=5 Id=0 Type=3 Size=1 Vnet=0 VC=0 Src NI=2 Src Router=2 Dest NI=19 Dest Router=3 Set Time=6500 Width=16 ]pushing into pending acknowledgement at NIC : 3 packet id : 33
pushing into pending acknowledgement at NIC : 0 packet id : 34
pushing into pending acknowledgement at NIC : 1 packet id : 35
pushing into pending acknowledgement at NIC : 9 packet id : 36
pushing into pending acknowledgement at NIC : 10 packet id : 37
pushing into pending acknowledgement at NIC : 5 packet id : 38
pushing into pending acknowledgement at NIC : 3 packet id : 39
pushing into pending acknowledgement at NIC : 10 packet id : 40
pushing into pending acknowledgement at NIC : 8 packet id : 41
pushing into pending acknowledgement at NIC : 2 packet id : 42
pushing into pending acknowledgement at NIC : 14 packet id : 43
pushing into pending acknowledgement at NIC : 12 packet id : 44
pushing into pending acknowledgement at NIC : 5 packet id : 45
pushing into pending acknowledgement at NIC : 10 packet id : 46
pushing into pending acknowledgement at NIC : 13 packet id : 47
pushing into pending acknowledgement at NIC : 0 packet id : 48
pushing into pending acknowledgement at NIC : 15 packet id : 49
pushing into pending acknowledgement at NIC : 14 packet id : 50
pushing into pending acknowledgement at NIC : 11 packet id : 51
pushing into pending acknowledgement at NIC : 5 packet id : 52
pushing into pending acknowledgement at NIC : 3 packet id : 53

 Original flit : [flit:: PacketId=12 Id=0 Type=3 Size=1 Vnet=1 VC=4 Src NI=10 Src Router=10 Dest NI=21 Dest Router=5 Set Time=9500 Width=16 ]pushing into pending acknowledgement at NIC : 2 packet id : 55

 Original flit : [flit:: PacketId=35 Id=0 Type=3 Size=1 Vnet=0 VC=0 Src NI=1 Src Router=1 Dest NI=17 Dest Router=1 Set Time=9500 Width=16 ]pushing into pending acknowledgement at NIC : 15 packet id : 57
pushing into pending acknowledgement at NIC : 8 packet id : 58
pushing into pending acknowledgement at NIC : 6 packet id : 59
pushing into pending acknowledgement at NIC : 4 packet id : 60

 Original flit : [flit:: PacketId=1 Id=0 Type=3 Size=1 Vnet=0 VC=0 Src NI=13 Src Router=13 Dest NI=22 Dest Router=6 Set Time=10500 Width=16 ]pushing into pending acknowledgement at NIC : 5 packet id : 62
pushing into pending acknowledgement at NIC : 3 packet id : 63

 Original flit : [flit:: PacketId=3 Id=0 Type=3 Size=1 Vnet=0 VC=0 Src NI=11 Src Router=11 Dest NI=24 Dest Router=8 Set Time=10500 Width=16 ]pushing into pending acknowledgement at NIC : 2 packet id : 65

 Original flit : [flit:: PacketId=15 Id=0 Type=3 Size=1 Vnet=0 VC=0 Src NI=8 Src Router=8 Dest NI=29 Dest Router=13 Set Time=10500 Width=16 ]pushing into pending acknowledgement at NIC : 8 packet id : 67
pushing into pending acknowledgement at NIC : 6 packet id : 68
pushing into pending acknowledgement at NIC : 15 packet id : 69
pushing into pending acknowledgement at NIC : 0 packet id : 70
pushing into pending acknowledgement at NIC : 9 packet id : 71
pushing into pending acknowledgement at NIC : 13 packet id : 72

 Original flit : [flit:: PacketId=18 Id=0 Type=3 Size=1 Vnet=0 VC=0 Src NI=15 Src Router=15 Dest NI=23 Dest Router=7 Set Time=11000 Width=16 ]
 Original flit : [flit:: PacketId=49 Id=0 Type=3 Size=1 Vnet=1 VC=4 Src NI=15 Src Router=15 Dest NI=31 Dest Router=15 Set Time=11500 Width=16 ]pushing into pending acknowledgement at NIC : 7 packet id : 75

 Original flit : [flit:: PacketId=34 Id=0 Type=3 Size=1 Vnet=0 VC=0 Src NI=0 Src Router=0 Dest NI=20 Dest Router=4 Set Time=11500 Width=16 ]pushing into pending acknowledgement at NIC : 4 packet id : 77

 Original flit : [flit:: PacketId=20 Id=0 Type=3 Size=1 Vnet=1 VC=4 Src NI=11 Src Router=11 Dest NI=22 Dest Router=6 Set Time=11500 Width=16 ]pushing into pending acknowledgement at NIC : 12 packet id : 79

 Original flit : [flit:: PacketId=44 Id=0 Type=3 Size=1 Vnet=0 VC=0 Src NI=12 Src Router=12 Dest NI=28 Dest Router=12 Set Time=11500 Width=16 ]
 Original flit : [flit:: PacketId=10 Id=0 Type=3 Size=1 Vnet=0 VC=0 Src NI=8 Src Router=8 Dest NI=30 Dest Router=14 Set Time=11500 Width=16 ]
 Original flit : [flit:: PacketId=36 Id=0 Type=3 Size=1 Vnet=0 VC=0 Src NI=9 Src Router=9 Dest NI=26 Dest Router=10 Set Time=11500 Width=16 ]pushing into pending acknowledgement at NIC : 5 packet id : 83

 Original flit : [flit:: PacketId=8 Id=0 Type=3 Size=1 Vnet=0 VC=1 Src NI=6 Src Router=6 Dest NI=24 Dest Router=8 Set Time=11500 Width=16 ]
 Original flit : [flit:: PacketId=37 Id=0 Type=3 Size=1 Vnet=1 VC=4 Src NI=10 Src Router=10 Dest NI=25 Dest Router=9 Set Time=11500 Width=16 ]pushing into pending acknowledgement at NIC : 0 packet id : 86
pushing into pending acknowledgement at NIC : 11 packet id : 87
[flit:: PacketId=32 Id=0 Type=3 Size=1 Vnet=0 VC=0 Src NI=19 Src Router=3 Dest NI=2 Dest Router=2 Set Time=12000 Width=16 ]
 Got acknowledgement for packet : 5at NIC : 18

deleting from pending list


 Original flit : [flit:: PacketId=19 Id=4 Type=2 Size=5 Vnet=2 VC=8 Src NI=4 Src Router=4 Dest NI=21 Dest Router=5 Set Time=12000 Width=16 ][flit:: PacketId=31 Id=0 Type=3 Size=1 Vnet=0 VC=1 Src NI=24 Src Router=8 Dest NI=12 Dest Router=12 Set Time=12000 Width=16 ]
 Got acknowledgement for packet : 2at NIC : 28

deleting from pending list


 Original flit : [flit:: PacketId=7 Id=0 Type=3 Size=1 Vnet=0 VC=1 Src NI=1 Src Router=1 Dest NI=23 Dest Router=7 Set Time=12000 Width=16 ]
 Original flit : [flit:: PacketId=11 Id=0 Type=3 Size=1 Vnet=1 VC=5 Src NI=9 Src Router=9 Dest NI=31 Dest Router=15 Set Time=12000 Width=16 ]pushing into pending acknowledgement at NIC : 4 packet id : 91
pushing into pending acknowledgement at NIC : 5 packet id : 92

 Original flit : [flit:: PacketId=4 Id=0 Type=3 Size=1 Vnet=0 VC=0 Src NI=4 Src Router=4 Dest NI=19 Dest Router=3 Set Time=12500 Width=16 ]
 Original flit : [flit:: PacketId=26 Id=0 Type=3 Size=1 Vnet=0 VC=0 Src NI=0 Src Router=0 Dest NI=21 Dest Router=5 Set Time=12500 Width=16 ]pushing into pending acknowledgement at NIC : 2 packet id : 95
pushing into pending acknowledgement at NIC : 10 packet id : 96
pushing into pending acknowledgement at NIC : 0 packet id : 97
pushing into pending acknowledgement at NIC : 9 packet id : 98
pushing into pending acknowledgement at NIC : 11 packet id : 99
pushing into pending acknowledgement at NIC : 15 packet id : 100
pushing into pending acknowledgement at NIC : 1 packet id : 101
pushing into pending acknowledgement at NIC : 6 packet id : 102

 Original flit : [flit:: PacketId=21 Id=4 Type=2 Size=5 Vnet=2 VC=8 Src NI=12 Src Router=12 Dest NI=24 Dest Router=8 Set Time=13000 Width=16 ][flit:: PacketId=56 Id=0 Type=3 Size=1 Vnet=0 VC=0 Src NI=17 Src Router=1 Dest NI=1 Dest Router=1 Set Time=13000 Width=16 ]
 Got acknowledgement for packet : 35at NIC : 17

deleting from pending list


 Original flit : [flit:: PacketId=30 Id=0 Type=3 Size=1 Vnet=1 VC=4 Src NI=12 Src Router=12 Dest NI=30 Dest Router=14 Set Time=13500 Width=16 ]pushing into pending acknowledgement at NIC : 3 packet id : 105

 Original flit : [flit:: PacketId=14 Id=0 Type=3 Size=1 Vnet=1 VC=4 Src NI=10 Src Router=10 Dest NI=19 Dest Router=3 Set Time=13500 Width=16 ]
 Original flit : [flit:: PacketId=22 Id=0 Type=3 Size=1 Vnet=1 VC=4 Src NI=13 Src Router=13 Dest NI=17 Dest Router=1 Set Time=13500 Width=16 ]
 Original flit : [flit:: PacketId=39 Id=0 Type=3 Size=1 Vnet=0 VC=1 Src NI=3 Src Router=3 Dest NI=18 Dest Router=2 Set Time=13500 Width=16 ]pushing into pending acknowledgement at NIC : 8 packet id : 109
pushing into pending acknowledgement at NIC : 0 packet id : 110
pushing into pending acknowledgement at NIC : 11 packet id : 111
pushing into pending acknowledgement at NIC : 15 packet id : 112
pushing into pending acknowledgement at NIC : 13 packet id : 113

 Original flit : [flit:: PacketId=16 Id=4 Type=2 Size=5 Vnet=2 VC=8 Src NI=6 Src Router=6 Dest NI=30 Dest Router=14 Set Time=14000 Width=16 ]
 Original flit : [flit:: PacketId=48 Id=0 Type=3 Size=1 Vnet=0 VC=0 Src NI=0 Src Router=0 Dest NI=20 Dest Router=4 Set Time=14000 Width=16 ]
 Original flit : [flit:: PacketId=27 Id=4 Type=2 Size=5 Vnet=2 VC=8 Src NI=11 Src Router=11 Dest NI=27 Dest Router=11 Set Time=14000 Width=16 ]
 Original flit : [flit:: PacketId=13 Id=0 Type=3 Size=1 Vnet=1 VC=4 Src NI=11 Src Router=11 Dest NI=20 Dest Router=4 Set Time=14500 Width=16 ]
 Original flit : [flit:: PacketId=17 Id=0 Type=3 Size=1 Vnet=0 VC=0 Src NI=1 Src Router=1 Dest NI=30 Dest Router=14 Set Time=14500 Width=16 ]pushing into pending acknowledgement at NIC : 5 packet id : 119

 Original flit : [flit:: PacketId=59 Id=0 Type=3 Size=1 Vnet=0 VC=0 Src NI=6 Src Router=6 Dest NI=21 Dest Router=5 Set Time=14500 Width=16 ]pushing into pending acknowledgement at NIC : 8 packet id : 121
pushing into pending acknowledgement at NIC : 9 packet id : 122

 Original flit : [flit:: PacketId=40 Id=0 Type=3 Size=1 Vnet=1 VC=4 Src NI=10 Src Router=10 Dest NI=29 Dest Router=13 Set Time=14500 Width=16 ]pushing into pending acknowledgement at NIC : 6 packet id : 124
[flit:: PacketId=74 Id=0 Type=3 Size=1 Vnet=0 VC=0 Src NI=31 Src Router=15 Dest NI=15 Dest Router=15 Set Time=15000 Width=16 ]
 Got acknowledgement for packet : 49at NIC : 31

deleting from pending list


 Original flit : [flit:: PacketId=38 Id=0 Type=3 Size=1 Vnet=1 VC=4 Src NI=5 Src Router=5 Dest NI=26 Dest Router=10 Set Time=15000 Width=16 ][flit:: PacketId=80 Id=0 Type=3 Size=1 Vnet=0 VC=0 Src NI=28 Src Router=12 Dest NI=12 Dest Router=12 Set Time=15000 Width=16 ]
 Got acknowledgement for packet : 44at NIC : 28

deleting from pending list


 Original flit : [flit:: PacketId=0 Id=4 Type=2 Size=5 Vnet=2 VC=9 Src NI=14 Src Router=14 Dest NI=27 Dest Router=11 Set Time=15000 Width=16 ]
 Original flit : [flit:: PacketId=72 Id=0 Type=3 Size=1 Vnet=0 VC=1 Src NI=13 Src Router=13 Dest NI=28 Dest Router=12 Set Time=15500 Width=16 ]pushing into pending acknowledgement at NIC : 14 packet id : 128
pushing into pending acknowledgement at NIC : 10 packet id : 129

 Original flit : [flit:: PacketId=96 Id=0 Type=3 Size=1 Vnet=0 VC=0 Src NI=10 Src Router=10 Dest NI=26 Dest Router=10 Set Time=15500 Width=16 ]pushing into pending acknowledgement at NIC : 9 packet id : 131
pushing into pending acknowledgement at NIC : 13 packet id : 132
pushing into pending acknowledgement at NIC : 11 packet id : 133
pushing into pending acknowledgement at NIC : 14 packet id : 134

 Original flit : [flit:: PacketId=41 Id=0 Type=3 Size=1 Vnet=1 VC=4 Src NI=8 Src Router=8 Dest NI=30 Dest Router=14 Set Time=16500 Width=16 ]pushing into pending acknowledgement at NIC : 0 packet id : 136

 Original flit : [flit:: PacketId=79 Id=0 Type=3 Size=1 Vnet=0 VC=0 Src NI=12 Src Router=12 Dest NI=29 Dest Router=13 Set Time=16500 Width=16 ]pushing into pending acknowledgement at NIC : 10 packet id : 138
pushing into pending acknowledgement at NIC : 12 packet id : 139
[flit:: PacketId=76 Id=0 Type=3 Size=1 Vnet=0 VC=0 Src NI=20 Src Router=4 Dest NI=0 Dest Router=0 Set Time=17000 Width=16 ]
 Got acknowledgement for packet : 34at NIC : 16

deleting from pending list


 Original flit : [flit:: PacketId=46 Id=4 Type=2 Size=5 Vnet=2 VC=8 Src NI=10 Src Router=10 Dest NI=25 Dest Router=9 Set Time=17000 Width=16 ]
 Original flit : [flit:: PacketId=9 Id=4 Type=2 Size=5 Vnet=2 VC=10 Src NI=7 Src Router=7 Dest NI=24 Dest Router=8 Set Time=17000 Width=16 ][flit:: PacketId=85 Id=0 Type=3 Size=1 Vnet=0 VC=1 Src NI=25 Src Router=9 Dest NI=10 Dest Router=10 Set Time=17000 Width=16 ]
 Got acknowledgement for packet : 37at NIC : 26

deleting from pending list


 Original flit : [flit:: PacketId=23 Id=4 Type=2 Size=5 Vnet=2 VC=8 Src NI=4 Src Router=4 Dest NI=28 Dest Router=12 Set Time=17000 Width=16 ]
 Original flit : [flit:: PacketId=6 Id=4 Type=2 Size=5 Vnet=2 VC=8 Src NI=11 Src Router=11 Dest NI=20 Dest Router=4 Set Time=17000 Width=16 ][flit:: PacketId=116 Id=0 Type=3 Size=1 Vnet=0 VC=0 Src NI=27 Src Router=11 Dest NI=11 Dest Router=11 Set Time=17500 Width=16 ]
 Got acknowledgement for packet : 27at NIC : 27

deleting from pending list

[flit:: PacketId=88 Id=0 Type=3 Size=1 Vnet=0 VC=0 Src NI=21 Src Router=5 Dest NI=4 Dest Router=4 Set Time=17500 Width=16 ]
 Got acknowledgement for packet : 19at NIC : 20

deleting from pending list


 Original flit : [flit:: PacketId=98 Id=0 Type=3 Size=1 Vnet=0 VC=0 Src NI=9 Src Router=9 Dest NI=24 Dest Router=8 Set Time=17500 Width=16 ]
 Original flit : [flit:: PacketId=122 Id=0 Type=3 Size=1 Vnet=0 VC=0 Src NI=9 Src Router=9 Dest NI=25 Dest Router=9 Set Time=17500 Width=16 ]pushing into pending acknowledgement at NIC : 9 packet id : 146
pushing into pending acknowledgement at NIC : 0 packet id : 147

 Original flit : [flit:: PacketId=99 Id=0 Type=3 Size=1 Vnet=1 VC=4 Src NI=11 Src Router=11 Dest NI=31 Dest Router=15 Set Time=17500 Width=16 ]pushing into pending acknowledgement at NIC : 13 packet id : 149
pushing into pending acknowledgement at NIC : 10 packet id : 150
pushing into pending acknowledgement at NIC : 3 packet id : 151
pushing into pending acknowledgement at NIC : 7 packet id : 152
pushing into pending acknowledgement at NIC : 2 packet id : 153
[flit:: PacketId=82 Id=0 Type=3 Size=1 Vnet=0 VC=1 Src NI=26 Src Router=10 Dest NI=9 Dest Router=9 Set Time=18000 Width=16 ]
 Got acknowledgement for packet : 36at NIC : 25

deleting from pending list

[flit:: PacketId=66 Id=0 Type=3 Size=1 Vnet=0 VC=1 Src NI=29 Src Router=13 Dest NI=8 Dest Router=8 Set Time=18000 Width=16 ]
 Got acknowledgement for packet : 15at NIC : 24

deleting from pending list


 Original flit : [flit:: PacketId=101 Id=0 Type=3 Size=1 Vnet=1 VC=4 Src NI=1 Src Router=1 Dest NI=21 Dest Router=5 Set Time=18000 Width=16 ][flit:: PacketId=54 Id=0 Type=3 Size=1 Vnet=0 VC=0 Src NI=21 Src Router=5 Dest NI=10 Dest Router=10 Set Time=18000 Width=16 ]
 Got acknowledgement for packet : 12at NIC : 26

deleting from pending list


 Original flit : [flit:: PacketId=53 Id=0 Type=3 Size=1 Vnet=0 VC=0 Src NI=3 Src Router=3 Dest NI=22 Dest Router=6 Set Time=18000 Width=16 ]
 Original flit : [flit:: PacketId=83 Id=0 Type=3 Size=1 Vnet=1 VC=4 Src NI=5 Src Router=5 Dest NI=22 Dest Router=6 Set Time=18500 Width=16 ]
 Original flit : [flit:: PacketId=113 Id=0 Type=3 Size=1 Vnet=1 VC=4 Src NI=13 Src Router=13 Dest NI=28 Dest Router=12 Set Time=18500 Width=16 ]pushing into pending acknowledgement at NIC : 5 packet id : 158

 Original flit : [flit:: PacketId=57 Id=0 Type=3 Size=1 Vnet=0 VC=0 Src NI=15 Src Router=15 Dest NI=19 Dest Router=3 Set Time=18500 Width=16 ]
 Original flit : [flit:: PacketId=77 Id=0 Type=3 Size=1 Vnet=0 VC=0 Src NI=4 Src Router=4 Dest NI=21 Dest Router=5 Set Time=18500 Width=16 ]
 Original flit : [flit:: PacketId=58 Id=4 Type=2 Size=5 Vnet=2 VC=9 Src NI=8 Src Router=8 Dest NI=24 Dest Router=8 Set Time=18500 Width=16 ]
 Original flit : [flit:: PacketId=55 Id=0 Type=3 Size=1 Vnet=1 VC=4 Src NI=2 Src Router=2 Dest NI=25 Dest Router=9 Set Time=18500 Width=16 ][flit:: PacketId=73 Id=0 Type=3 Size=1 Vnet=0 VC=0 Src NI=23 Src Router=7 Dest NI=15 Dest Router=15 Set Time=18500 Width=16 ]
 Got acknowledgement for packet : 18at NIC : 31

deleting from pending list

pushing into pending acknowledgement at NIC : 15 packet id : 163
pushing into pending acknowledgement at NIC : 6 packet id : 164
pushing into pending acknowledgement at NIC : 3 packet id : 165
pushing into pending acknowledgement at NIC : 1 packet id : 166
pushing into pending acknowledgement at NIC : 12 packet id : 167
pushing into pending acknowledgement at NIC : 14 packet id : 168
pushing into pending acknowledgement at NIC : 8 packet id : 169

 Original flit : [flit:: PacketId=86 Id=0 Type=3 Size=1 Vnet=0 VC=2 Src NI=0 Src Router=0 Dest NI=24 Dest Router=8 Set Time=19000 Width=16 ][flit:: PacketId=108 Id=0 Type=3 Size=1 Vnet=0 VC=1 Src NI=18 Src Router=2 Dest NI=3 Dest Router=3 Set Time=19000 Width=16 ]
 Got acknowledgement for packet : 39at NIC : 19

deleting from pending list

[flit:: PacketId=130 Id=0 Type=3 Size=1 Vnet=0 VC=1 Src NI=26 Src Router=10 Dest NI=10 Dest Router=10 Set Time=19000 Width=16 ]
 Got acknowledgement for packet : 96at NIC : 26

deleting from pending list

pushing into pending acknowledgement at NIC : 11 packet id : 171
[flit:: PacketId=103 Id=0 Type=3 Size=1 Vnet=0 VC=0 Src NI=24 Src Router=8 Dest NI=12 Dest Router=12 Set Time=19500 Width=16 ]
 Got acknowledgement for packet : 21at NIC : 28

deleting from pending list


 Original flit : [flit:: PacketId=95 Id=0 Type=3 Size=1 Vnet=0 VC=2 Src NI=2 Src Router=2 Dest NI=26 Dest Router=10 Set Time=19500 Width=16 ]
 Original flit : [flit:: PacketId=51 Id=0 Type=3 Size=1 Vnet=1 VC=5 Src NI=11 Src Router=11 Dest NI=21 Dest Router=5 Set Time=19500 Width=16 ]
 Original flit : [flit:: PacketId=102 Id=0 Type=3 Size=1 Vnet=1 VC=5 Src NI=6 Src Router=6 Dest NI=25 Dest Router=9 Set Time=19500 Width=16 ]pushing into pending acknowledgement at NIC : 8 packet id : 175

 Original flit : [flit:: PacketId=47 Id=0 Type=3 Size=1 Vnet=0 VC=0 Src NI=13 Src Router=13 Dest NI=16 Dest Router=0 Set Time=19500 Width=16 ]pushing into pending acknowledgement at NIC : 10 packet id : 177
pushing into pending acknowledgement at NIC : 1 packet id : 178
pushing into pending acknowledgement at NIC : 9 packet id : 179
pushing into pending acknowledgement at NIC : 0 packet id : 180
[flit:: PacketId=61 Id=0 Type=3 Size=1 Vnet=0 VC=0 Src NI=22 Src Router=6 Dest NI=13 Dest Router=13 Set Time=20000 Width=16 ]
 Got acknowledgement for packet : 1at NIC : 29

deleting from pending list

[flit:: PacketId=115 Id=0 Type=3 Size=1 Vnet=0 VC=1 Src NI=20 Src Router=4 Dest NI=0 Dest Router=0 Set Time=20000 Width=16 ]
 Got acknowledgement for packet : 48at NIC : 16

deleting from pending list


 Original flit : [flit:: PacketId=43 Id=4 Type=2 Size=5 Vnet=2 VC=8 Src NI=14 Src Router=14 Dest NI=22 Dest Router=6 Set Time=20000 Width=16 ]pushing into pending acknowledgement at NIC : 11 packet id : 182
[flit:: PacketId=120 Id=0 Type=3 Size=1 Vnet=0 VC=0 Src NI=21 Src Router=5 Dest NI=6 Dest Router=6 Set Time=20500 Width=16 ]
 Got acknowledgement for packet : 59at NIC : 22

deleting from pending list

pushing into pending acknowledgement at NIC : 14 packet id : 183
pushing into pending acknowledgement at NIC : 5 packet id : 184
[flit:: PacketId=94 Id=0 Type=3 Size=1 Vnet=0 VC=2 Src NI=21 Src Router=5 Dest NI=0 Dest Router=0 Set Time=20500 Width=16 ]
 Got acknowledgement for packet : 26at NIC : 16

deleting from pending list

pushing into pending acknowledgement at NIC : 12 packet id : 185
pushing into pending acknowledgement at NIC : 4 packet id : 186
pushing into pending acknowledgement at NIC : 7 packet id : 187
[flit:: PacketId=127 Id=0 Type=3 Size=1 Vnet=0 VC=1 Src NI=28 Src Router=12 Dest NI=13 Dest Router=13 Set Time=21000 Width=16 ]
 Got acknowledgement for packet : 72at NIC : 29

deleting from pending list

[flit:: PacketId=81 Id=0 Type=3 Size=1 Vnet=0 VC=0 Src NI=30 Src Router=14 Dest NI=8 Dest Router=8 Set Time=21000 Width=16 ]
 Got acknowledgement for packet : 10at NIC : 24

deleting from pending list


 Original flit : [flit:: PacketId=110 Id=0 Type=3 Size=1 Vnet=1 VC=4 Src NI=0 Src Router=0 Dest NI=21 Dest Router=5 Set Time=21000 Width=16 ]
 Original flit : [flit:: PacketId=25 Id=4 Type=2 Size=5 Vnet=2 VC=8 Src NI=3 Src Router=3 Dest NI=26 Dest Router=10 Set Time=21000 Width=16 ]
 Original flit : [flit:: PacketId=24 Id=4 Type=2 Size=5 Vnet=2 VC=9 Src NI=5 Src Router=5 Dest NI=30 Dest Router=14 Set Time=21000 Width=16 ][flit:: PacketId=104 Id=0 Type=3 Size=1 Vnet=0 VC=1 Src NI=30 Src Router=14 Dest NI=12 Dest Router=12 Set Time=21000 Width=16 ]
 Got acknowledgement for packet : 30at NIC : 28

deleting from pending list


 Original flit : [flit:: PacketId=129 Id=0 Type=3 Size=1 Vnet=1 VC=4 Src NI=10 Src Router=10 Dest NI=22 Dest Router=6 Set Time=21000 Width=16 ][flit:: PacketId=64 Id=0 Type=3 Size=1 Vnet=0 VC=0 Src NI=24 Src Router=8 Dest NI=11 Dest Router=11 Set Time=21000 Width=16 ]
 Got acknowledgement for packet : 3at NIC : 27

deleting from pending list

[flit:: PacketId=90 Id=0 Type=3 Size=1 Vnet=0 VC=0 Src NI=31 Src Router=15 Dest NI=9 Dest Router=9 Set Time=21500 Width=16 ]
 Got acknowledgement for packet : 11at NIC : 25

deleting from pending list

pushing into pending acknowledgement at NIC : 8 packet id : 192
pushing into pending acknowledgement at NIC : 2 packet id : 193
pushing into pending acknowledgement at NIC : 12 packet id : 194
pushing into pending acknowledgement at NIC : 0 packet id : 195
[flit:: PacketId=145 Id=0 Type=3 Size=1 Vnet=0 VC=1 Src NI=25 Src Router=9 Dest NI=9 Dest Router=9 Set Time=22000 Width=16 ]
 Got acknowledgement for packet : 122at NIC : 25

deleting from pending list

[flit:: PacketId=161 Id=0 Type=3 Size=1 Vnet=0 VC=1 Src NI=24 Src Router=8 Dest NI=8 Dest Router=8 Set Time=22000 Width=16 ]
 Got acknowledgement for packet : 58at NIC : 24

deleting from pending list


 Original flit : [flit:: PacketId=63 Id=0 Type=3 Size=1 Vnet=0 VC=0 Src NI=3 Src Router=3 Dest NI=26 Dest Router=10 Set Time=22000 Width=16 ][flit:: PacketId=137 Id=0 Type=3 Size=1 Vnet=0 VC=0 Src NI=29 Src Router=13 Dest NI=12 Dest Router=12 Set Time=22000 Width=16 ]
 Got acknowledgement for packet : 79at NIC : 28

deleting from pending list

[flit:: PacketId=89 Id=0 Type=3 Size=1 Vnet=0 VC=0 Src NI=23 Src Router=7 Dest NI=1 Dest Router=1 Set Time=22000 Width=16 ]
 Got acknowledgement for packet : 7at NIC : 17

deleting from pending list

[flit:: PacketId=78 Id=0 Type=3 Size=1 Vnet=0 VC=1 Src NI=22 Src Router=6 Dest NI=11 Dest Router=11 Set Time=22500 Width=16 ]
 Got acknowledgement for packet : 20at NIC : 27

deleting from pending list

pushing into pending acknowledgement at NIC : 11 packet id : 197
[flit:: PacketId=114 Id=0 Type=3 Size=1 Vnet=0 VC=0 Src NI=30 Src Router=14 Dest NI=6 Dest Router=6 Set Time=22500 Width=16 ]
 Got acknowledgement for packet : 16at NIC : 22

deleting from pending list

pushing into pending acknowledgement at NIC : 6 packet id : 198
pushing into pending acknowledgement at NIC : 14 packet id : 199
[flit:: PacketId=126 Id=0 Type=3 Size=1 Vnet=0 VC=0 Src NI=27 Src Router=11 Dest NI=14 Dest Router=14 Set Time=22500 Width=16 ]
 Got acknowledgement for packet : 0at NIC : 30

deleting from pending list

[flit:: PacketId=123 Id=0 Type=3 Size=1 Vnet=0 VC=1 Src NI=29 Src Router=13 Dest NI=10 Dest Router=10 Set Time=22500 Width=16 ]
 Got acknowledgement for packet : 40at NIC : 26

deleting from pending list


 Original flit : [flit:: PacketId=152 Id=0 Type=3 Size=1 Vnet=0 VC=0 Src NI=7 Src Router=7 Dest NI=19 Dest Router=3 Set Time=22500 Width=16 ][flit:: PacketId=125 Id=0 Type=3 Size=1 Vnet=0 VC=0 Src NI=26 Src Router=10 Dest NI=5 Dest Router=5 Set Time=22500 Width=16 ]
 Got acknowledgement for packet : 38at NIC : 21

deleting from pending list

pushing into pending acknowledgement at NIC : 8 packet id : 201
pushing into pending acknowledgement at NIC : 2 packet id : 202
pushing into pending acknowledgement at NIC : 4 packet id : 203
pushing into pending acknowledgement at NIC : 0 packet id : 204
pushing into pending acknowledgement at NIC : 10 packet id : 205
pushing into pending acknowledgement at NIC : 15 packet id : 206
pushing into pending acknowledgement at NIC : 9 packet id : 207
[flit:: PacketId=107 Id=0 Type=3 Size=1 Vnet=0 VC=0 Src NI=17 Src Router=1 Dest NI=13 Dest Router=13 Set Time=23000 Width=16 ]
 Got acknowledgement for packet : 22at NIC : 29

deleting from pending list


 Original flit : [flit:: PacketId=131 Id=0 Type=3 Size=1 Vnet=1 VC=4 Src NI=9 Src Router=9 Dest NI=30 Dest Router=14 Set Time=23000 Width=16 ]
 Original flit : [flit:: PacketId=68 Id=0 Type=3 Size=1 Vnet=1 VC=4 Src NI=6 Src Router=6 Dest NI=28 Dest Router=12 Set Time=23000 Width=16 ][flit:: PacketId=84 Id=0 Type=3 Size=1 Vnet=0 VC=1 Src NI=24 Src Router=8 Dest NI=6 Dest Router=6 Set Time=23000 Width=16 ]
 Got acknowledgement for packet : 8at NIC : 22

deleting from pending list

[flit:: PacketId=148 Id=0 Type=3 Size=1 Vnet=0 VC=0 Src NI=31 Src Router=15 Dest NI=11 Dest Router=11 Set Time=23000 Width=16 ]
 Got acknowledgement for packet : 99at NIC : 27

deleting from pending list


 Original flit : [flit:: PacketId=91 Id=0 Type=3 Size=1 Vnet=1 VC=4 Src NI=4 Src Router=4 Dest NI=23 Dest Router=7 Set Time=23000 Width=16 ]
 Original flit : [flit:: PacketId=28 Id=4 Type=2 Size=5 Vnet=2 VC=10 Src NI=7 Src Router=7 Dest NI=27 Dest Router=11 Set Time=23500 Width=16 ]
 Original flit : [flit:: PacketId=105 Id=0 Type=3 Size=1 Vnet=0 VC=2 Src NI=3 Src Router=3 Dest NI=26 Dest Router=10 Set Time=23500 Width=16 ][flit:: PacketId=144 Id=0 Type=3 Size=1 Vnet=0 VC=0 Src NI=24 Src Router=8 Dest NI=9 Dest Router=9 Set Time=23500 Width=16 ]
 Got acknowledgement for packet : 98at NIC : 25

deleting from pending list

pushing into pending acknowledgement at NIC : 7 packet id : 213
pushing into pending acknowledgement at NIC : 3 packet id : 214
[flit:: PacketId=157 Id=0 Type=3 Size=1 Vnet=0 VC=1 Src NI=28 Src Router=12 Dest NI=13 Dest Router=13 Set Time=24000 Width=16 ]
 Got acknowledgement for packet : 113at NIC : 29

deleting from pending list


 Original flit : [flit:: PacketId=136 Id=0 Type=3 Size=1 Vnet=1 VC=4 Src NI=0 Src Router=0 Dest NI=21 Dest Router=5 Set Time=24000 Width=16 ][flit:: PacketId=140 Id=0 Type=3 Size=1 Vnet=0 VC=0 Src NI=25 Src Router=9 Dest NI=10 Dest Router=10 Set Time=24000 Width=16 ]
 Got acknowledgement for packet : 46at NIC : 26

deleting from pending list

[flit:: PacketId=93 Id=0 Type=3 Size=1 Vnet=0 VC=0 Src NI=19 Src Router=3 Dest NI=4 Dest Router=4 Set Time=24000 Width=16 ]
 Got acknowledgement for packet : 4at NIC : 20

deleting from pending list

[flit:: PacketId=154 Id=0 Type=3 Size=1 Vnet=0 VC=0 Src NI=21 Src Router=5 Dest NI=1 Dest Router=1 Set Time=24500 Width=16 ]
 Got acknowledgement for packet : 101at NIC : 17

deleting from pending list


 Original flit : [flit:: PacketId=65 Id=0 Type=3 Size=1 Vnet=0 VC=0 Src NI=2 Src Router=2 Dest NI=28 Dest Router=12 Set Time=24500 Width=16 ]pushing into pending acknowledgement at NIC : 14 packet id : 217

 Original flit : [flit:: PacketId=171 Id=0 Type=3 Size=1 Vnet=0 VC=0 Src NI=11 Src Router=11 Dest NI=31 Dest Router=15 Set Time=24500 Width=16 ]pushing into pending acknowledgement at NIC : 5 packet id : 219
[flit:: PacketId=156 Id=0 Type=3 Size=1 Vnet=0 VC=0 Src NI=22 Src Router=6 Dest NI=5 Dest Router=5 Set Time=24500 Width=16 ]
 Got acknowledgement for packet : 83at NIC : 21

deleting from pending list


 Original flit : [flit:: PacketId=147 Id=0 Type=3 Size=1 Vnet=1 VC=4 Src NI=0 Src Router=0 Dest NI=18 Dest Router=2 Set Time=24500 Width=16 ]pushing into pending acknowledgement at NIC : 8 packet id : 221
pushing into pending acknowledgement at NIC : 0 packet id : 222
pushing into pending acknowledgement at NIC : 10 packet id : 223
pushing into pending acknowledgement at NIC : 13 packet id : 224
pushing into pending acknowledgement at NIC : 15 packet id : 225

 Original flit : [flit:: PacketId=111 Id=0 Type=3 Size=1 Vnet=1 VC=5 Src NI=11 Src Router=11 Dest NI=21 Dest Router=5 Set Time=25000 Width=16 ][flit:: PacketId=106 Id=0 Type=3 Size=1 Vnet=0 VC=1 Src NI=19 Src Router=3 Dest NI=10 Dest Router=10 Set Time=25000 Width=16 ]
 Got acknowledgement for packet : 14at NIC : 26

deleting from pending list


 Original flit : [flit:: PacketId=52 Id=0 Type=3 Size=1 Vnet=1 VC=4 Src NI=5 Src Router=5 Dest NI=31 Dest Router=15 Set Time=25000 Width=16 ][flit:: PacketId=160 Id=0 Type=3 Size=1 Vnet=0 VC=1 Src NI=21 Src Router=5 Dest NI=4 Dest Router=4 Set Time=25000 Width=16 ]
 Got acknowledgement for packet : 77at NIC : 20

deleting from pending list


 Original flit : [flit:: PacketId=60 Id=4 Type=2 Size=5 Vnet=2 VC=8 Src NI=4 Src Router=4 Dest NI=17 Dest Router=1 Set Time=25500 Width=16 ]
 Original flit : [flit:: PacketId=97 Id=0 Type=3 Size=1 Vnet=0 VC=0 Src NI=0 Src Router=0 Dest NI=27 Dest Router=11 Set Time=25500 Width=16 ][flit:: PacketId=142 Id=0 Type=3 Size=1 Vnet=0 VC=2 Src NI=28 Src Router=12 Dest NI=4 Dest Router=4 Set Time=25500 Width=16 ]
 Got acknowledgement for packet : 23at NIC : 20

deleting from pending list

pushing into pending acknowledgement at NIC : 4 packet id : 230
pushing into pending acknowledgement at NIC : 6 packet id : 231

 Original flit : [flit:: PacketId=109 Id=4 Type=2 Size=5 Vnet=2 VC=8 Src NI=8 Src Router=8 Dest NI=28 Dest Router=12 Set Time=25500 Width=16 ]pushing into pending acknowledgement at NIC : 14 packet id : 233

 Original flit : [flit:: PacketId=71 Id=4 Type=2 Size=5 Vnet=2 VC=8 Src NI=9 Src Router=9 Dest NI=18 Dest Router=2 Set Time=25500 Width=16 ]
 Original flit : [flit:: PacketId=69 Id=0 Type=3 Size=1 Vnet=0 VC=0 Src NI=15 Src Router=15 Dest NI=16 Dest Router=0 Set Time=25500 Width=16 ]pushing into pending acknowledgement at NIC : 2 packet id : 236
pushing into pending acknowledgement at NIC : 7 packet id : 237
pushing into pending acknowledgement at NIC : 1 packet id : 238

 Original flit : [flit:: PacketId=134 Id=0 Type=3 Size=1 Vnet=0 VC=0 Src NI=14 Src Router=14 Dest NI=24 Dest Router=8 Set Time=26000 Width=16 ]
 Original flit : [flit:: PacketId=179 Id=0 Type=3 Size=1 Vnet=1 VC=4 Src NI=9 Src Router=9 Dest NI=21 Dest Router=5 Set Time=26000 Width=16 ]
 Original flit : [flit:: PacketId=33 Id=4 Type=2 Size=5 Vnet=2 VC=8 Src NI=3 Src Router=3 Dest NI=31 Dest Router=15 Set Time=26000 Width=16 ]
 Original flit : [flit:: PacketId=184 Id=0 Type=3 Size=1 Vnet=1 VC=4 Src NI=5 Src Router=5 Dest NI=20 Dest Router=4 Set Time=26000 Width=16 ]
 Original flit : [flit:: PacketId=119 Id=0 Type=3 Size=1 Vnet=0 VC=1 Src NI=5 Src Router=5 Dest NI=27 Dest Router=11 Set Time=26000 Width=16 ]
 Original flit : [flit:: PacketId=164 Id=0 Type=3 Size=1 Vnet=0 VC=2 Src NI=6 Src Router=6 Dest NI=27 Dest Router=11 Set Time=26500 Width=16 ]pushing into pending acknowledgement at NIC : 11 packet id : 245
pushing into pending acknowledgement at NIC : 6 packet id : 246
pushing into pending acknowledgement at NIC : 5 packet id : 247

 Original flit : [flit:: PacketId=92 Id=4 Type=2 Size=5 Vnet=2 VC=8 Src NI=5 Src Router=5 Dest NI=21 Dest Router=5 Set Time=26500 Width=16 ]
 Original flit : [flit:: PacketId=180 Id=0 Type=3 Size=1 Vnet=1 VC=4 Src NI=0 Src Router=0 Dest NI=18 Dest Router=2 Set Time=26500 Width=16 ][flit:: PacketId=155 Id=0 Type=3 Size=1 Vnet=0 VC=0 Src NI=22 Src Router=6 Dest NI=3 Dest Router=3 Set Time=26500 Width=16 ]
 Got acknowledgement for packet : 53at NIC : 19

deleting from pending list

pushing into pending acknowledgement at NIC : 8 packet id : 250
[flit:: PacketId=170 Id=0 Type=3 Size=1 Vnet=0 VC=1 Src NI=24 Src Router=8 Dest NI=0 Dest Router=0 Set Time=26500 Width=16 ]
 Got acknowledgement for packet : 86at NIC : 16

deleting from pending list

pushing into pending acknowledgement at NIC : 2 packet id : 251
pushing into pending acknowledgement at NIC : 0 packet id : 252
pushing into pending acknowledgement at NIC : 1 packet id : 253
pushing into pending acknowledgement at NIC : 7 packet id : 254
pushing into pending acknowledgement at NIC : 9 packet id : 255
pushing into pending acknowledgement at NIC : 3 packet id : 256
pushing into pending acknowledgement at NIC : 13 packet id : 257
[flit:: PacketId=135 Id=0 Type=3 Size=1 Vnet=0 VC=1 Src NI=30 Src Router=14 Dest NI=8 Dest Router=8 Set Time=27000 Width=16 ]
 Got acknowledgement for packet : 41at NIC : 24

deleting from pending list


 Original flit : [flit:: PacketId=150 Id=4 Type=2 Size=5 Vnet=2 VC=9 Src NI=10 Src Router=10 Dest NI=26 Dest Router=10 Set Time=27000 Width=16 ]
 Original flit : [flit:: PacketId=153 Id=4 Type=2 Size=5 Vnet=2 VC=10 Src NI=2 Src Router=2 Dest NI=17 Dest Router=1 Set Time=27000 Width=16 ][flit:: PacketId=118 Id=0 Type=3 Size=1 Vnet=0 VC=0 Src NI=30 Src Router=14 Dest NI=1 Dest Router=1 Set Time=27500 Width=16 ]
 Got acknowledgement for packet : 17at NIC : 17

deleting from pending list


 Original flit : [flit:: PacketId=177 Id=0 Type=3 Size=1 Vnet=0 VC=0 Src NI=10 Src Router=10 Dest NI=23 Dest Router=7 Set Time=27500 Width=16 ]
 Original flit : [flit:: PacketId=185 Id=0 Type=3 Size=1 Vnet=0 VC=0 Src NI=12 Src Router=12 Dest NI=20 Dest Router=4 Set Time=27500 Width=16 ]pushing into pending acknowledgement at NIC : 14 packet id : 262

 Original flit : [flit:: PacketId=206 Id=0 Type=3 Size=1 Vnet=1 VC=4 Src NI=15 Src Router=15 Dest NI=30 Dest Router=14 Set Time=27500 Width=16 ][flit:: PacketId=191 Id=0 Type=3 Size=1 Vnet=0 VC=0 Src NI=22 Src Router=6 Dest NI=10 Dest Router=10 Set Time=27500 Width=16 ]
 Got acknowledgement for packet : 129at NIC : 26

deleting from pending list

pushing into pending acknowledgement at NIC : 10 packet id : 264
pushing into pending acknowledgement at NIC : 5 packet id : 265

 Original flit : [flit:: PacketId=224 Id=0 Type=3 Size=1 Vnet=1 VC=4 Src NI=13 Src Router=13 Dest NI=29 Dest Router=13 Set Time=27500 Width=16 ][flit:: PacketId=172 Id=0 Type=3 Size=1 Vnet=0 VC=0 Src NI=26 Src Router=10 Dest NI=2 Dest Router=2 Set Time=27500 Width=16 ]
 Got acknowledgement for packet : 95at NIC : 18

deleting from pending list


 Original flit : [flit:: PacketId=165 Id=0 Type=3 Size=1 Vnet=1 VC=4 Src NI=3 Src Router=3 Dest NI=16 Dest Router=0 Set Time=27500 Width=16 ]pushing into pending acknowledgement at NIC : 13 packet id : 268
pushing into pending acknowledgement at NIC : 1 packet id : 269
pushing into pending acknowledgement at NIC : 15 packet id : 270

 Original flit : [flit:: PacketId=207 Id=0 Type=3 Size=1 Vnet=1 VC=5 Src NI=9 Src Router=9 Dest NI=29 Dest Router=13 Set Time=28000 Width=16 ]
 Original flit : [flit:: PacketId=133 Id=4 Type=2 Size=5 Vnet=2 VC=8 Src NI=11 Src Router=11 Dest NI=25 Dest Router=9 Set Time=28000 Width=16 ]
 Original flit : [flit:: PacketId=158 Id=0 Type=3 Size=1 Vnet=0 VC=1 Src NI=5 Src Router=5 Dest NI=26 Dest Router=10 Set Time=28000 Width=16 ][flit:: PacketId=181 Id=0 Type=3 Size=1 Vnet=0 VC=0 Src NI=22 Src Router=6 Dest NI=14 Dest Router=14 Set Time=28000 Width=16 ]
 Got acknowledgement for packet : 43at NIC : 30

deleting from pending list

[flit:: PacketId=174 Id=0 Type=3 Size=1 Vnet=0 VC=0 Src NI=25 Src Router=9 Dest NI=6 Dest Router=6 Set Time=28000 Width=16 ]
 Got acknowledgement for packet : 102at NIC : 22

deleting from pending list

[flit:: PacketId=200 Id=0 Type=3 Size=1 Vnet=0 VC=1 Src NI=19 Src Router=3 Dest NI=7 Dest Router=7 Set Time=28000 Width=16 ]
 Got acknowledgement for packet : 152at NIC : 23

deleting from pending list

[flit:: PacketId=117 Id=0 Type=3 Size=1 Vnet=0 VC=0 Src NI=20 Src Router=4 Dest NI=11 Dest Router=11 Set Time=28500 Width=16 ]
 Got acknowledgement for packet : 13at NIC : 27

deleting from pending list


 Original flit : [flit:: PacketId=75 Id=4 Type=2 Size=5 Vnet=2 VC=8 Src NI=7 Src Router=7 Dest NI=20 Dest Router=4 Set Time=28500 Width=16 ]pushing into pending acknowledgement at NIC : 14 packet id : 275

 Original flit : [flit:: PacketId=151 Id=0 Type=3 Size=1 Vnet=0 VC=0 Src NI=3 Src Router=3 Dest NI=25 Dest Router=9 Set Time=28500 Width=16 ]
 Original flit : [flit:: PacketId=166 Id=0 Type=3 Size=1 Vnet=0 VC=0 Src NI=1 Src Router=1 Dest NI=29 Dest Router=13 Set Time=28500 Width=16 ][flit:: PacketId=162 Id=0 Type=3 Size=1 Vnet=0 VC=1 Src NI=25 Src Router=9 Dest NI=2 Dest Router=2 Set Time=28500 Width=16 ]
 Got acknowledgement for packet : 55at NIC : 18

deleting from pending list

pushing into pending acknowledgement at NIC : 8 packet id : 278
pushing into pending acknowledgement at NIC : 13 packet id : 279
pushing into pending acknowledgement at NIC : 1 packet id : 280
pushing into pending acknowledgement at NIC : 11 packet id : 281
pushing into pending acknowledgement at NIC : 9 packet id : 282
[flit:: PacketId=159 Id=0 Type=3 Size=1 Vnet=0 VC=0 Src NI=19 Src Router=3 Dest NI=15 Dest Router=15 Set Time=29000 Width=16 ]
 Got acknowledgement for packet : 57at NIC : 31

deleting from pending list

[flit:: PacketId=143 Id=0 Type=3 Size=1 Vnet=0 VC=1 Src NI=20 Src Router=4 Dest NI=11 Dest Router=11 Set Time=29000 Width=16 ]
 Got acknowledgement for packet : 6at NIC : 27

deleting from pending list

[flit:: PacketId=211 Id=0 Type=3 Size=1 Vnet=0 VC=2 Src NI=27 Src Router=11 Dest NI=7 Dest Router=7 Set Time=29000 Width=16 ]
 Got acknowledgement for packet : 28at NIC : 23

deleting from pending list


 Original flit : [flit:: PacketId=167 Id=0 Type=3 Size=1 Vnet=1 VC=4 Src NI=12 Src Router=12 Dest NI=27 Dest Router=11 Set Time=29500 Width=16 ]pushing into pending acknowledgement at NIC : 6 packet id : 284
pushing into pending acknowledgement at NIC : 14 packet id : 285
pushing into pending acknowledgement at NIC : 0 packet id : 286
pushing into pending acknowledgement at NIC : 3 packet id : 287
pushing into pending acknowledgement at NIC : 13 packet id : 288
pushing into pending acknowledgement at NIC : 9 packet id : 289
pushing into pending acknowledgement at NIC : 15 packet id : 290

 Original flit : [flit:: PacketId=168 Id=0 Type=3 Size=1 Vnet=1 VC=4 Src NI=14 Src Router=14 Dest NI=19 Dest Router=3 Set Time=30000 Width=16 ][flit:: PacketId=188 Id=0 Type=3 Size=1 Vnet=0 VC=0 Src NI=21 Src Router=5 Dest NI=0 Dest Router=0 Set Time=30000 Width=16 ]
 Got acknowledgement for packet : 110at NIC : 16

deleting from pending list


 Original flit : [flit:: PacketId=194 Id=4 Type=2 Size=5 Vnet=2 VC=8 Src NI=12 Src Router=12 Dest NI=24 Dest Router=8 Set Time=30000 Width=16 ][flit:: PacketId=248 Id=0 Type=3 Size=1 Vnet=0 VC=0 Src NI=21 Src Router=5 Dest NI=5 Dest Router=5 Set Time=30000 Width=16 ]
 Got acknowledgement for packet : 92at NIC : 21

deleting from pending list


 Original flit : [flit:: PacketId=217 Id=0 Type=3 Size=1 Vnet=0 VC=0 Src NI=14 Src Router=14 Dest NI=26 Dest Router=10 Set Time=30000 Width=16 ][flit:: PacketId=173 Id=0 Type=3 Size=1 Vnet=0 VC=2 Src NI=21 Src Router=5 Dest NI=11 Dest Router=11 Set Time=30000 Width=16 ]
 Got acknowledgement for packet : 51at NIC : 27

deleting from pending list


 Original flit : [flit:: PacketId=149 Id=0 Type=3 Size=1 Vnet=0 VC=0 Src NI=13 Src Router=13 Dest NI=23 Dest Router=7 Set Time=30000 Width=16 ]
 Original flit : [flit:: PacketId=128 Id=0 Type=3 Size=1 Vnet=0 VC=0 Src NI=14 Src Router=14 Dest NI=17 Dest Router=1 Set Time=30000 Width=16 ]
 Original flit : [flit:: PacketId=203 Id=0 Type=3 Size=1 Vnet=1 VC=4 Src NI=4 Src Router=4 Dest NI=22 Dest Router=6 Set Time=30500 Width=16 ]
 Original flit : [flit:: PacketId=270 Id=0 Type=3 Size=1 Vnet=1 VC=4 Src NI=15 Src Router=15 Dest NI=31 Dest Router=15 Set Time=30500 Width=16 ][flit:: PacketId=258 Id=0 Type=3 Size=1 Vnet=0 VC=1 Src NI=26 Src Router=10 Dest NI=10 Dest Router=10 Set Time=30500 Width=16 ]
 Got acknowledgement for packet : 150at NIC : 26

deleting from pending list


 Original flit : [flit:: PacketId=238 Id=0 Type=3 Size=1 Vnet=0 VC=1 Src NI=1 Src Router=1 Dest NI=21 Dest Router=5 Set Time=30500 Width=16 ][flit:: PacketId=208 Id=0 Type=3 Size=1 Vnet=0 VC=0 Src NI=30 Src Router=14 Dest NI=9 Dest Router=9 Set Time=30500 Width=16 ]
 Got acknowledgement for packet : 131at NIC : 25

deleting from pending list

pushing into pending acknowledgement at NIC : 8 packet id : 299

 Original flit : [flit:: PacketId=195 Id=0 Type=3 Size=1 Vnet=0 VC=0 Src NI=0 Src Router=0 Dest NI=19 Dest Router=3 Set Time=30500 Width=16 ]pushing into pending acknowledgement at NIC : 9 packet id : 301
pushing into pending acknowledgement at NIC : 15 packet id : 302
pushing into pending acknowledgement at NIC : 10 packet id : 303
[flit:: PacketId=266 Id=0 Type=3 Size=1 Vnet=0 VC=0 Src NI=29 Src Router=13 Dest NI=13 Dest Router=13 Set Time=31000 Width=16 ]
 Got acknowledgement for packet : 224at NIC : 29

deleting from pending list


 Original flit : [flit:: PacketId=193 Id=0 Type=3 Size=1 Vnet=1 VC=4 Src NI=2 Src Router=2 Dest NI=25 Dest Router=9 Set Time=31000 Width=16 ][flit:: PacketId=232 Id=0 Type=3 Size=1 Vnet=0 VC=0 Src NI=28 Src Router=12 Dest NI=8 Dest Router=8 Set Time=31000 Width=16 ]
 Got acknowledgement for packet : 109at NIC : 24

deleting from pending list


 Original flit : [flit:: PacketId=62 Id=4 Type=2 Size=5 Vnet=2 VC=9 Src NI=5 Src Router=5 Dest NI=28 Dest Router=12 Set Time=31000 Width=16 ][flit:: PacketId=218 Id=0 Type=3 Size=1 Vnet=0 VC=0 Src NI=31 Src Router=15 Dest NI=11 Dest Router=11 Set Time=31000 Width=16 ]
 Got acknowledgement for packet : 171at NIC : 27

deleting from pending list


 Original flit : [flit:: PacketId=182 Id=4 Type=2 Size=5 Vnet=2 VC=9 Src NI=11 Src Router=11 Dest NI=23 Dest Router=7 Set Time=31000 Width=16 ]
 Original flit : [flit:: PacketId=50 Id=4 Type=2 Size=5 Vnet=2 VC=9 Src NI=14 Src Router=14 Dest NI=17 Dest Router=1 Set Time=31000 Width=16 ][flit:: PacketId=141 Id=0 Type=3 Size=1 Vnet=0 VC=1 Src NI=24 Src Router=8 Dest NI=7 Dest Router=7 Set Time=31500 Width=16 ]
 Got acknowledgement for packet : 9at NIC : 23

deleting from pending list


 Original flit : [flit:: PacketId=42 Id=4 Type=2 Size=5 Vnet=2 VC=8 Src NI=2 Src Router=2 Dest NI=27 Dest Router=11 Set Time=31500 Width=16 ]
 Original flit : [flit:: PacketId=198 Id=4 Type=2 Size=5 Vnet=2 VC=8 Src NI=6 Src Router=6 Dest NI=22 Dest Router=6 Set Time=31500 Width=16 ]
 Original flit : [flit:: PacketId=45 Id=4 Type=2 Size=5 Vnet=2 VC=8 Src NI=5 Src Router=5 Dest NI=30 Dest Router=14 Set Time=31500 Width=16 ]
 Original flit : [flit:: PacketId=257 Id=0 Type=3 Size=1 Vnet=0 VC=1 Src NI=13 Src Router=13 Dest NI=25 Dest Router=9 Set Time=31500 Width=16 ][flit:: PacketId=176 Id=0 Type=3 Size=1 Vnet=0 VC=1 Src NI=16 Src Router=0 Dest NI=13 Dest Router=13 Set Time=31500 Width=16 ]
 Got acknowledgement for packet : 47at NIC : 29

deleting from pending list


 Original flit : [flit:: PacketId=100 Id=4 Type=2 Size=5 Vnet=2 VC=9 Src NI=15 Src Router=15 Dest NI=18 Dest Router=2 Set Time=31500 Width=16 ]pushing into pending acknowledgement at NIC : 8 packet id : 313
[flit:: PacketId=215 Id=0 Type=3 Size=1 Vnet=0 VC=1 Src NI=21 Src Router=5 Dest NI=0 Dest Router=0 Set Time=31500 Width=16 ]
 Got acknowledgement for packet : 136at NIC : 16

deleting from pending list

pushing into pending acknowledgement at NIC : 0 packet id : 314
[flit:: PacketId=189 Id=0 Type=3 Size=1 Vnet=0 VC=1 Src NI=26 Src Router=10 Dest NI=3 Dest Router=3 Set Time=31500 Width=16 ]
 Got acknowledgement for packet : 25at NIC : 19

deleting from pending list

pushing into pending acknowledgement at NIC : 13 packet id : 315
pushing into pending acknowledgement at NIC : 9 packet id : 316
pushing into pending acknowledgement at NIC : 12 packet id : 317
pushing into pending acknowledgement at NIC : 7 packet id : 318
[flit:: PacketId=220 Id=0 Type=3 Size=1 Vnet=0 VC=0 Src NI=18 Src Router=2 Dest NI=0 Dest Router=0 Set Time=32000 Width=16 ]
 Got acknowledgement for packet : 147at NIC : 16

deleting from pending list


 Original flit : [flit:: PacketId=187 Id=0 Type=3 Size=1 Vnet=1 VC=4 Src NI=7 Src Router=7 Dest NI=29 Dest Router=13 Set Time=32000 Width=16 ][flit:: PacketId=240 Id=0 Type=3 Size=1 Vnet=0 VC=2 Src NI=21 Src Router=5 Dest NI=9 Dest Router=9 Set Time=32000 Width=16 ]
 Got acknowledgement for packet : 179at NIC : 25

deleting from pending list

[flit:: PacketId=242 Id=0 Type=3 Size=1 Vnet=0 VC=0 Src NI=20 Src Router=4 Dest NI=5 Dest Router=5 Set Time=32000 Width=16 ]
 Got acknowledgement for packet : 184at NIC : 21

deleting from pending list


 Original flit : [flit:: PacketId=70 Id=4 Type=2 Size=5 Vnet=2 VC=9 Src NI=0 Src Router=0 Dest NI=30 Dest Router=14 Set Time=32000 Width=16 ]
 Original flit : [flit:: PacketId=29 Id=4 Type=2 Size=5 Vnet=2 VC=9 Src NI=4 Src Router=4 Dest NI=27 Dest Router=11 Set Time=32000 Width=16 ]
 Original flit : [flit:: PacketId=175 Id=0 Type=3 Size=1 Vnet=0 VC=0 Src NI=8 Src Router=8 Dest NI=17 Dest Router=1 Set Time=32000 Width=16 ]
 Original flit : [flit:: PacketId=251 Id=0 Type=3 Size=1 Vnet=1 VC=4 Src NI=2 Src Router=2 Dest NI=17 Dest Router=1 Set Time=32500 Width=16 ]
 Original flit : [flit:: PacketId=139 Id=0 Type=3 Size=1 Vnet=0 VC=0 Src NI=12 Src Router=12 Dest NI=23 Dest Router=7 Set Time=32500 Width=16 ]
 Original flit : [flit:: PacketId=254 Id=0 Type=3 Size=1 Vnet=0 VC=1 Src NI=7 Src Router=7 Dest NI=27 Dest Router=11 Set Time=32500 Width=16 ]pushing into pending acknowledgement at NIC : 11 packet id : 326

 Original flit : [flit:: PacketId=204 Id=4 Type=2 Size=5 Vnet=2 VC=9 Src NI=0 Src Router=0 Dest NI=20 Dest Router=4 Set Time=32500 Width=16 ]pushing into pending acknowledgement at NIC : 14 packet id : 328

 Original flit : [flit:: PacketId=197 Id=4 Type=2 Size=5 Vnet=2 VC=10 Src NI=11 Src Router=11 Dest NI=31 Dest Router=15 Set Time=32500 Width=16 ]pushing into pending acknowledgement at NIC : 5 packet id : 330
[flit:: PacketId=190 Id=0 Type=3 Size=1 Vnet=0 VC=1 Src NI=30 Src Router=14 Dest NI=5 Dest Router=5 Set Time=32500 Width=16 ]
 Got acknowledgement for packet : 24at NIC : 21

deleting from pending list

[flit:: PacketId=259 Id=0 Type=3 Size=1 Vnet=0 VC=0 Src NI=17 Src Router=1 Dest NI=2 Dest Router=2 Set Time=32500 Width=16 ]
 Got acknowledgement for packet : 153at NIC : 18

deleting from pending list

pushing into pending acknowledgement at NIC : 8 packet id : 331
pushing into pending acknowledgement at NIC : 13 packet id : 332
pushing into pending acknowledgement at NIC : 9 packet id : 333
pushing into pending acknowledgement at NIC : 3 packet id : 334
pushing into pending acknowledgement at NIC : 4 packet id : 335
pushing into pending acknowledgement at NIC : 15 packet id : 336

 Original flit : [flit:: PacketId=124 Id=4 Type=2 Size=5 Vnet=2 VC=10 Src NI=6 Src Router=6 Dest NI=28 Dest Router=12 Set Time=33000 Width=16 ][flit:: PacketId=263 Id=0 Type=3 Size=1 Vnet=0 VC=0 Src NI=30 Src Router=14 Dest NI=15 Dest Router=15 Set Time=33000 Width=16 ]
 Got acknowledgement for packet : 206at NIC : 31

deleting from pending list


 Original flit : [flit:: PacketId=284 Id=0 Type=3 Size=1 Vnet=0 VC=0 Src NI=6 Src Router=6 Dest NI=22 Dest Router=6 Set Time=33000 Width=16 ][flit:: PacketId=210 Id=0 Type=3 Size=1 Vnet=0 VC=0 Src NI=23 Src Router=7 Dest NI=4 Dest Router=4 Set Time=33000 Width=16 ]
 Got acknowledgement for packet : 91at NIC : 20

deleting from pending list


 Original flit : [flit:: PacketId=230 Id=0 Type=3 Size=1 Vnet=1 VC=5 Src NI=4 Src Router=4 Dest NI=17 Dest Router=1 Set Time=33000 Width=16 ]
 Original flit : [flit:: PacketId=67 Id=4 Type=2 Size=5 Vnet=2 VC=11 Src NI=8 Src Router=8 Dest NI=27 Dest Router=11 Set Time=33500 Width=16 ][flit:: PacketId=228 Id=0 Type=3 Size=1 Vnet=0 VC=1 Src NI=17 Src Router=1 Dest NI=4 Dest Router=4 Set Time=33500 Width=16 ]
 Got acknowledgement for packet : 60at NIC : 20

deleting from pending list

pushing into pending acknowledgement at NIC : 14 packet id : 341

 Original flit : [flit:: PacketId=245 Id=0 Type=3 Size=1 Vnet=0 VC=0 Src NI=11 Src Router=11 Dest NI=30 Dest Router=14 Set Time=33500 Width=16 ]
 Original flit : [flit:: PacketId=262 Id=0 Type=3 Size=1 Vnet=1 VC=4 Src NI=14 Src Router=14 Dest NI=26 Dest Router=10 Set Time=33500 Width=16 ]
 Original flit : [flit:: PacketId=87 Id=4 Type=2 Size=5 Vnet=2 VC=9 Src NI=11 Src Router=11 Dest NI=21 Dest Router=5 Set Time=33500 Width=16 ]
 Original flit : [flit:: PacketId=225 Id=0 Type=3 Size=1 Vnet=0 VC=0 Src NI=15 Src Router=15 Dest NI=28 Dest Router=12 Set Time=33500 Width=16 ][flit:: PacketId=271 Id=0 Type=3 Size=1 Vnet=0 VC=0 Src NI=29 Src Router=13 Dest NI=9 Dest Router=9 Set Time=33500 Width=16 ]
 Got acknowledgement for packet : 207at NIC : 25

deleting from pending list

pushing into pending acknowledgement at NIC : 2 packet id : 346
pushing into pending acknowledgement at NIC : 8 packet id : 347
pushing into pending acknowledgement at NIC : 13 packet id : 348
pushing into pending acknowledgement at NIC : 10 packet id : 349
pushing into pending acknowledgement at NIC : 4 packet id : 350
pushing into pending acknowledgement at NIC : 11 packet id : 351
pushing into pending acknowledgement at NIC : 7 packet id : 352
[flit:: PacketId=249 Id=0 Type=3 Size=1 Vnet=0 VC=0 Src NI=18 Src Router=2 Dest NI=0 Dest Router=0 Set Time=34000 Width=16 ]
 Got acknowledgement for packet : 180at NIC : 16

deleting from pending list


 Original flit : [flit:: PacketId=205 Id=4 Type=2 Size=5 Vnet=2 VC=8 Src NI=10 Src Router=10 Dest NI=29 Dest Router=13 Set Time=34000 Width=16 ]
 Original flit : [flit:: PacketId=223 Id=0 Type=3 Size=1 Vnet=0 VC=1 Src NI=10 Src Router=10 Dest NI=28 Dest Router=12 Set Time=34000 Width=16 ][flit:: PacketId=297 Id=0 Type=3 Size=1 Vnet=0 VC=1 Src NI=31 Src Router=15 Dest NI=15 Dest Router=15 Set Time=34000 Width=16 ]
 Got acknowledgement for packet : 270at NIC : 31

deleting from pending list


 Original flit : [flit:: PacketId=213 Id=0 Type=3 Size=1 Vnet=0 VC=0 Src NI=7 Src Router=7 Dest NI=17 Dest Router=1 Set Time=34000 Width=16 ]
 Original flit : [flit:: PacketId=186 Id=4 Type=2 Size=5 Vnet=2 VC=10 Src NI=4 Src Router=4 Dest NI=23 Dest Router=7 Set Time=34500 Width=16 ]
 Original flit : [flit:: PacketId=202 Id=4 Type=2 Size=5 Vnet=2 VC=10 Src NI=2 Src Router=2 Dest NI=22 Dest Router=6 Set Time=34500 Width=16 ]
 Original flit : [flit:: PacketId=214 Id=0 Type=3 Size=1 Vnet=1 VC=4 Src NI=3 Src Router=3 Dest NI=30 Dest Router=14 Set Time=34500 Width=16 ]pushing into pending acknowledgement at NIC : 8 packet id : 359
pushing into pending acknowledgement at NIC : 0 packet id : 360
pushing into pending acknowledgement at NIC : 13 packet id : 361
pushing into pending acknowledgement at NIC : 15 packet id : 362
pushing into pending acknowledgement at NIC : 7 packet id : 363
pushing into pending acknowledgement at NIC : 6 packet id : 364
pushing into pending acknowledgement at NIC : 12 packet id : 365

 Original flit : [flit:: PacketId=146 Id=0 Type=3 Size=1 Vnet=1 VC=4 Src NI=9 Src Router=9 Dest NI=19 Dest Router=3 Set Time=35000 Width=16 ][flit:: PacketId=234 Id=0 Type=3 Size=1 Vnet=0 VC=1 Src NI=18 Src Router=2 Dest NI=9 Dest Router=9 Set Time=35000 Width=16 ]
 Got acknowledgement for packet : 71at NIC : 25

deleting from pending list

[flit:: PacketId=261 Id=0 Type=3 Size=1 Vnet=0 VC=2 Src NI=20 Src Router=4 Dest NI=12 Dest Router=12 Set Time=35000 Width=16 ]
 Got acknowledgement for packet : 185at NIC : 28

deleting from pending list

[flit:: PacketId=260 Id=0 Type=3 Size=1 Vnet=0 VC=0 Src NI=23 Src Router=7 Dest NI=10 Dest Router=10 Set Time=35000 Width=16 ]
 Got acknowledgement for packet : 177at NIC : 26

deleting from pending list

[flit:: PacketId=244 Id=0 Type=3 Size=1 Vnet=0 VC=0 Src NI=27 Src Router=11 Dest NI=6 Dest Router=6 Set Time=35000 Width=16 ]
 Got acknowledgement for packet : 164at NIC : 22

deleting from pending list


 Original flit : [flit:: PacketId=163 Id=0 Type=3 Size=1 Vnet=1 VC=4 Src NI=15 Src Router=15 Dest NI=17 Dest Router=1 Set Time=35000 Width=16 ]
 Original flit : [flit:: PacketId=236 Id=4 Type=2 Size=5 Vnet=2 VC=8 Src NI=2 Src Router=2 Dest NI=17 Dest Router=1 Set Time=35500 Width=16 ][flit:: PacketId=226 Id=0 Type=3 Size=1 Vnet=0 VC=0 Src NI=21 Src Router=5 Dest NI=11 Dest Router=11 Set Time=35500 Width=16 ]
 Got acknowledgement for packet : 111at NIC : 27

deleting from pending list

[flit:: PacketId=309 Id=0 Type=3 Size=1 Vnet=0 VC=1 Src NI=22 Src Router=6 Dest NI=6 Dest Router=6 Set Time=35500 Width=16 ]
 Got acknowledgement for packet : 198at NIC : 22

deleting from pending list

pushing into pending acknowledgement at NIC : 14 packet id : 369
[flit:: PacketId=293 Id=0 Type=3 Size=1 Vnet=0 VC=0 Src NI=26 Src Router=10 Dest NI=14 Dest Router=14 Set Time=35500 Width=16 ]
 Got acknowledgement for packet : 217at NIC : 30

deleting from pending list

[flit:: PacketId=292 Id=0 Type=3 Size=1 Vnet=0 VC=0 Src NI=24 Src Router=8 Dest NI=12 Dest Router=12 Set Time=35500 Width=16 ]
 Got acknowledgement for packet : 194at NIC : 28

deleting from pending list

pushing into pending acknowledgement at NIC : 9 packet id : 370

 Original flit : [flit:: PacketId=255 Id=0 Type=3 Size=1 Vnet=0 VC=1 Src NI=9 Src Router=9 Dest NI=16 Dest Router=0 Set Time=35500 Width=16 ]pushing into pending acknowledgement at NIC : 13 packet id : 372
pushing into pending acknowledgement at NIC : 7 packet id : 373
pushing into pending acknowledgement at NIC : 11 packet id : 374
[flit:: PacketId=273 Id=0 Type=3 Size=1 Vnet=0 VC=0 Src NI=26 Src Router=10 Dest NI=5 Dest Router=5 Set Time=36000 Width=16 ]
 Got acknowledgement for packet : 158at NIC : 21

deleting from pending list


 Original flit : [flit:: PacketId=253 Id=0 Type=3 Size=1 Vnet=1 VC=4 Src NI=1 Src Router=1 Dest NI=26 Dest Router=10 Set Time=36000 Width=16 ][flit:: PacketId=209 Id=0 Type=3 Size=1 Vnet=0 VC=2 Src NI=28 Src Router=12 Dest NI=6 Dest Router=6 Set Time=36000 Width=16 ]
 Got acknowledgement for packet : 68at NIC : 22

deleting from pending list


 Original flit : [flit:: PacketId=138 Id=4 Type=2 Size=5 Vnet=2 VC=8 Src NI=10 Src Router=10 Dest NI=23 Dest Router=7 Set Time=36000 Width=16 ][flit:: PacketId=298 Id=0 Type=3 Size=1 Vnet=0 VC=0 Src NI=21 Src Router=5 Dest NI=1 Dest Router=1 Set Time=36000 Width=16 ]
 Got acknowledgement for packet : 238at NIC : 17

deleting from pending list

[flit:: PacketId=272 Id=0 Type=3 Size=1 Vnet=0 VC=1 Src NI=25 Src Router=9 Dest NI=11 Dest Router=11 Set Time=36500 Width=16 ]
 Got acknowledgement for packet : 133at NIC : 27

deleting from pending list


 Original flit : [flit:: PacketId=264 Id=0 Type=3 Size=1 Vnet=1 VC=4 Src NI=10 Src Router=10 Dest NI=20 Dest Router=4 Set Time=36500 Width=16 ][flit:: PacketId=338 Id=0 Type=3 Size=1 Vnet=0 VC=3 Src NI=22 Src Router=6 Dest NI=6 Dest Router=6 Set Time=36500 Width=16 ]
 Got acknowledgement for packet : 284at NIC : 22

deleting from pending list

pushing into pending acknowledgement at NIC : 10 packet id : 378

 Original flit : [flit:: PacketId=231 Id=0 Type=3 Size=1 Vnet=1 VC=4 Src NI=6 Src Router=6 Dest NI=28 Dest Router=12 Set Time=36500 Width=16 ]
 Original flit : [flit:: PacketId=290 Id=0 Type=3 Size=1 Vnet=0 VC=0 Src NI=15 Src Router=15 Dest NI=29 Dest Router=13 Set Time=36500 Width=16 ]
 Original flit : [flit:: PacketId=346 Id=0 Type=3 Size=1 Vnet=0 VC=0 Src NI=2 Src Router=2 Dest NI=18 Dest Router=2 Set Time=36500 Width=16 ][flit:: PacketId=212 Id=0 Type=3 Size=1 Vnet=0 VC=0 Src NI=26 Src Router=10 Dest NI=3 Dest Router=3 Set Time=36500 Width=16 ]
 Got acknowledgement for packet : 105at NIC : 19

deleting from pending list

pushing into pending acknowledgement at NIC : 15 packet id : 382
pushing into pending acknowledgement at NIC : 3 packet id : 383
pushing into pending acknowledgement at NIC : 9 packet id : 384
[flit:: PacketId=241 Id=0 Type=3 Size=1 Vnet=0 VC=1 Src NI=31 Src Router=15 Dest NI=3 Dest Router=3 Set Time=37000 Width=16 ]
 Got acknowledgement for packet : 33at NIC : 19

deleting from pending list

[flit:: PacketId=311 Id=0 Type=3 Size=1 Vnet=0 VC=1 Src NI=25 Src Router=9 Dest NI=13 Dest Router=13 Set Time=37000 Width=16 ]
 Got acknowledgement for packet : 257at NIC : 29

deleting from pending list


 Original flit : [flit:: PacketId=178 Id=4 Type=2 Size=5 Vnet=2 VC=8 Src NI=1 Src Router=1 Dest NI=28 Dest Router=12 Set Time=37000 Width=16 ][flit:: PacketId=243 Id=0 Type=3 Size=1 Vnet=0 VC=1 Src NI=27 Src Router=11 Dest NI=5 Dest Router=5 Set Time=37000 Width=16 ]
 Got acknowledgement for packet : 119at NIC : 21

deleting from pending list


 Original flit : [flit:: PacketId=132 Id=4 Type=2 Size=5 Vnet=2 VC=9 Src NI=13 Src Router=13 Dest NI=22 Dest Router=6 Set Time=37000 Width=16 ]
 Original flit : [flit:: PacketId=314 Id=0 Type=3 Size=1 Vnet=0 VC=0 Src NI=0 Src Router=0 Dest NI=20 Dest Router=4 Set Time=37000 Width=16 ][flit:: PacketId=306 Id=0 Type=3 Size=1 Vnet=0 VC=2 Src NI=23 Src Router=7 Dest NI=11 Dest Router=11 Set Time=37000 Width=16 ]
 Got acknowledgement for packet : 182at NIC : 27

deleting from pending list

pushing into pending acknowledgement at NIC : 14 packet id : 388
pushing into pending acknowledgement at NIC : 10 packet id : 389
[flit:: PacketId=227 Id=0 Type=3 Size=1 Vnet=0 VC=2 Src NI=31 Src Router=15 Dest NI=5 Dest Router=5 Set Time=37500 Width=16 ]
 Got acknowledgement for packet : 52at NIC : 21

deleting from pending list


 Original flit : [flit:: PacketId=269 Id=0 Type=3 Size=1 Vnet=1 VC=4 Src NI=1 Src Router=1 Dest NI=29 Dest Router=13 Set Time=37500 Width=16 ]pushing into pending acknowledgement at NIC : 8 packet id : 391
[flit:: PacketId=267 Id=0 Type=3 Size=1 Vnet=0 VC=2 Src NI=16 Src Router=0 Dest NI=3 Dest Router=3 Set Time=37500 Width=16 ]
 Got acknowledgement for packet : 165at NIC : 19

deleting from pending list

pushing into pending acknowledgement at NIC : 7 packet id : 392
pushing into pending acknowledgement at NIC : 12 packet id : 393
pushing into pending acknowledgement at NIC : 9 packet id : 394
pushing into pending acknowledgement at NIC : 5 packet id : 395
[flit:: PacketId=196 Id=0 Type=3 Size=1 Vnet=0 VC=3 Src NI=26 Src Router=10 Dest NI=3 Dest Router=3 Set Time=38000 Width=16 ]
 Got acknowledgement for packet : 63at NIC : 19

deleting from pending list

[flit:: PacketId=327 Id=0 Type=3 Size=1 Vnet=0 VC=0 Src NI=20 Src Router=4 Dest NI=0 Dest Router=0 Set Time=38000 Width=16 ]
 Got acknowledgement for packet : 204at NIC : 16

deleting from pending list

[flit:: PacketId=323 Id=0 Type=3 Size=1 Vnet=0 VC=1 Src NI=17 Src Router=1 Dest NI=2 Dest Router=2 Set Time=38000 Width=16 ]
 Got acknowledgement for packet : 251at NIC : 18

deleting from pending list


 Original flit : [flit:: PacketId=280 Id=0 Type=3 Size=1 Vnet=1 VC=5 Src NI=1 Src Router=1 Dest NI=29 Dest Router=13 Set Time=38000 Width=16 ]
 Original flit : [flit:: PacketId=281 Id=0 Type=3 Size=1 Vnet=0 VC=0 Src NI=11 Src Router=11 Dest NI=24 Dest Router=8 Set Time=38000 Width=16 ][flit:: PacketId=296 Id=0 Type=3 Size=1 Vnet=0 VC=1 Src NI=22 Src Router=6 Dest NI=4 Dest Router=4 Set Time=38000 Width=16 ]
 Got acknowledgement for packet : 203at NIC : 20

deleting from pending list

[flit:: PacketId=329 Id=0 Type=3 Size=1 Vnet=0 VC=0 Src NI=31 Src Router=15 Dest NI=11 Dest Router=11 Set Time=38000 Width=16 ]
 Got acknowledgement for packet : 197at NIC : 27

deleting from pending list

[flit:: PacketId=274 Id=0 Type=3 Size=1 Vnet=0 VC=0 Src NI=20 Src Router=4 Dest NI=7 Dest Router=7 Set Time=38000 Width=16 ]
 Got acknowledgement for packet : 75at NIC : 23

deleting from pending list

[flit:: PacketId=277 Id=0 Type=3 Size=1 Vnet=0 VC=0 Src NI=29 Src Router=13 Dest NI=1 Dest Router=1 Set Time=38500 Width=16 ]
 Got acknowledgement for packet : 166at NIC : 17

deleting from pending list

[flit:: PacketId=325 Id=0 Type=3 Size=1 Vnet=0 VC=1 Src NI=27 Src Router=11 Dest NI=7 Dest Router=7 Set Time=38500 Width=16 ]
 Got acknowledgement for packet : 254at NIC : 23

deleting from pending list


 Original flit : [flit:: PacketId=237 Id=0 Type=3 Size=1 Vnet=0 VC=0 Src NI=7 Src Router=7 Dest NI=28 Dest Router=12 Set Time=38500 Width=16 ]
 Original flit : [flit:: PacketId=317 Id=0 Type=3 Size=1 Vnet=1 VC=4 Src NI=12 Src Router=12 Dest NI=25 Dest Router=9 Set Time=38500 Width=16 ]
 Original flit : [flit:: PacketId=372 Id=0 Type=3 Size=1 Vnet=1 VC=6 Src NI=13 Src Router=13 Dest NI=29 Dest Router=13 Set Time=38500 Width=16 ]
 Original flit : [flit:: PacketId=350 Id=0 Type=3 Size=1 Vnet=0 VC=1 Src NI=4 Src Router=4 Dest NI=16 Dest Router=0 Set Time=38500 Width=16 ]pushing into pending acknowledgement at NIC : 0 packet id : 402
pushing into pending acknowledgement at NIC : 13 packet id : 403
pushing into pending acknowledgement at NIC : 1 packet id : 404
pushing into pending acknowledgement at NIC : 3 packet id : 405
pushing into pending acknowledgement at NIC : 4 packet id : 406
[flit:: PacketId=343 Id=0 Type=3 Size=1 Vnet=0 VC=0 Src NI=26 Src Router=10 Dest NI=14 Dest Router=14 Set Time=39000 Width=16 ]
 Got acknowledgement for packet : 262at NIC : 30

deleting from pending list


 Original flit : [flit:: PacketId=201 Id=0 Type=3 Size=1 Vnet=0 VC=2 Src NI=8 Src Router=8 Dest NI=23 Dest Router=7 Set Time=39000 Width=16 ]
 Original flit : [flit:: PacketId=246 Id=4 Type=2 Size=5 Vnet=2 VC=8 Src NI=6 Src Router=6 Dest NI=30 Dest Router=14 Set Time=39500 Width=16 ]pushing into pending acknowledgement at NIC : 14 packet id : 409
pushing into pending acknowledgement at NIC : 5 packet id : 410

 Original flit : [flit:: PacketId=326 Id=0 Type=3 Size=1 Vnet=0 VC=0 Src NI=11 Src Router=11 Dest NI=19 Dest Router=3 Set Time=39500 Width=16 ]pushing into pending acknowledgement at NIC : 7 packet id : 412
pushing into pending acknowledgement at NIC : 12 packet id : 413
pushing into pending acknowledgement at NIC : 11 packet id : 414
pushing into pending acknowledgement at NIC : 13 packet id : 415
pushing into pending acknowledgement at NIC : 3 packet id : 416
pushing into pending acknowledgement at NIC : 6 packet id : 417
[flit:: PacketId=300 Id=0 Type=3 Size=1 Vnet=0 VC=0 Src NI=19 Src Router=3 Dest NI=0 Dest Router=0 Set Time=40000 Width=16 ]
 Got acknowledgement for packet : 195at NIC : 16

deleting from pending list

[flit:: PacketId=381 Id=0 Type=3 Size=1 Vnet=0 VC=0 Src NI=18 Src Router=2 Dest NI=2 Dest Router=2 Set Time=40000 Width=16 ]
 Got acknowledgement for packet : 346at NIC : 18

deleting from pending list


 Original flit : [flit:: PacketId=265 Id=4 Type=2 Size=5 Vnet=2 VC=8 Src NI=5 Src Router=5 Dest NI=21 Dest Router=5 Set Time=40000 Width=16 ]
 Original flit : [flit:: PacketId=288 Id=0 Type=3 Size=1 Vnet=0 VC=0 Src NI=13 Src Router=13 Dest NI=22 Dest Router=6 Set Time=40500 Width=16 ][flit:: PacketId=239 Id=0 Type=3 Size=1 Vnet=0 VC=1 Src NI=24 Src Router=8 Dest NI=14 Dest Router=14 Set Time=40500 Width=16 ]
 Got acknowledgement for packet : 134at NIC : 30

deleting from pending list

pushing into pending acknowledgement at NIC : 14 packet id : 420

 Original flit : [flit:: PacketId=370 Id=0 Type=3 Size=1 Vnet=0 VC=0 Src NI=9 Src Router=9 Dest NI=24 Dest Router=8 Set Time=40500 Width=16 ]
 Original flit : [flit:: PacketId=318 Id=0 Type=3 Size=1 Vnet=1 VC=4 Src NI=7 Src Router=7 Dest NI=25 Dest Router=9 Set Time=40500 Width=16 ][flit:: PacketId=357 Id=0 Type=3 Size=1 Vnet=0 VC=1 Src NI=22 Src Router=6 Dest NI=2 Dest Router=2 Set Time=40500 Width=16 ]
 Got acknowledgement for packet : 202at NIC : 18

deleting from pending list

[flit:: PacketId=229 Id=0 Type=3 Size=1 Vnet=0 VC=1 Src NI=27 Src Router=11 Dest NI=0 Dest Router=0 Set Time=40500 Width=16 ]
 Got acknowledgement for packet : 97at NIC : 16

deleting from pending list

pushing into pending acknowledgement at NIC : 7 packet id : 423
pushing into pending acknowledgement at NIC : 11 packet id : 424
pushing into pending acknowledgement at NIC : 0 packet id : 425
pushing into pending acknowledgement at NIC : 6 packet id : 426

 Original flit : [flit:: PacketId=183 Id=4 Type=2 Size=5 Vnet=2 VC=8 Src NI=14 Src Router=14 Dest NI=16 Dest Router=0 Set Time=41000 Width=16 ][flit:: PacketId=216 Id=0 Type=3 Size=1 Vnet=0 VC=2 Src NI=28 Src Router=12 Dest NI=2 Dest Router=2 Set Time=41000 Width=16 ]
 Got acknowledgement for packet : 65at NIC : 18

deleting from pending list


 Original flit : [flit:: PacketId=359 Id=0 Type=3 Size=1 Vnet=1 VC=5 Src NI=8 Src Router=8 Dest NI=25 Dest Router=9 Set Time=41000 Width=16 ]
 Original flit : [flit:: PacketId=112 Id=4 Type=2 Size=5 Vnet=2 VC=10 Src NI=15 Src Router=15 Dest NI=21 Dest Router=5 Set Time=41000 Width=16 ][flit:: PacketId=235 Id=0 Type=3 Size=1 Vnet=0 VC=0 Src NI=16 Src Router=0 Dest NI=15 Dest Router=15 Set Time=41000 Width=16 ]
 Got acknowledgement for packet : 69at NIC : 31

deleting from pending list


 Original flit : [flit:: PacketId=301 Id=0 Type=3 Size=1 Vnet=0 VC=0 Src NI=9 Src Router=9 Dest NI=30 Dest Router=14 Set Time=41000 Width=16 ][flit:: PacketId=339 Id=0 Type=3 Size=1 Vnet=0 VC=0 Src NI=17 Src Router=1 Dest NI=4 Dest Router=4 Set Time=41000 Width=16 ]
 Got acknowledgement for packet : 230at NIC : 20

deleting from pending list

[flit:: PacketId=342 Id=0 Type=3 Size=1 Vnet=0 VC=0 Src NI=30 Src Router=14 Dest NI=11 Dest Router=11 Set Time=41500 Width=16 ]
 Got acknowledgement for packet : 245at NIC : 27

deleting from pending list

[flit:: PacketId=291 Id=0 Type=3 Size=1 Vnet=0 VC=2 Src NI=19 Src Router=3 Dest NI=14 Dest Router=14 Set Time=41500 Width=16 ]
 Got acknowledgement for packet : 168at NIC : 30

deleting from pending list


 Original flit : [flit:: PacketId=252 Id=4 Type=2 Size=5 Vnet=2 VC=11 Src NI=0 Src Router=0 Dest NI=21 Dest Router=5 Set Time=41500 Width=16 ]pushing into pending acknowledgement at NIC : 5 packet id : 432
[flit:: PacketId=283 Id=0 Type=3 Size=1 Vnet=0 VC=0 Src NI=27 Src Router=11 Dest NI=12 Dest Router=12 Set Time=41500 Width=16 ]
 Got acknowledgement for packet : 167at NIC : 28

deleting from pending list

[flit:: PacketId=322 Id=0 Type=3 Size=1 Vnet=0 VC=1 Src NI=17 Src Router=1 Dest NI=8 Dest Router=8 Set Time=41500 Width=16 ]
 Got acknowledgement for packet : 175at NIC : 24

deleting from pending list


 Original flit : [flit:: PacketId=348 Id=0 Type=3 Size=1 Vnet=0 VC=0 Src NI=13 Src Router=13 Dest NI=25 Dest Router=9 Set Time=41500 Width=16 ][flit:: PacketId=294 Id=0 Type=3 Size=1 Vnet=0 VC=0 Src NI=23 Src Router=7 Dest NI=13 Dest Router=13 Set Time=41500 Width=16 ]
 Got acknowledgement for packet : 149at NIC : 29

deleting from pending list


 Original flit : [flit:: PacketId=335 Id=0 Type=3 Size=1 Vnet=0 VC=3 Src NI=4 Src Router=4 Dest NI=18 Dest Router=2 Set Time=41500 Width=16 ]pushing into pending acknowledgement at NIC : 11 packet id : 435
pushing into pending acknowledgement at NIC : 10 packet id : 436
pushing into pending acknowledgement at NIC : 4 packet id : 437
pushing into pending acknowledgement at NIC : 3 packet id : 438
pushing into pending acknowledgement at NIC : 2 packet id : 439

 Original flit : [flit:: PacketId=282 Id=0 Type=3 Size=1 Vnet=1 VC=4 Src NI=9 Src Router=9 Dest NI=19 Dest Router=3 Set Time=42000 Width=16 ][flit:: PacketId=368 Id=0 Type=3 Size=1 Vnet=0 VC=0 Src NI=17 Src Router=1 Dest NI=2 Dest Router=2 Set Time=42000 Width=16 ]
 Got acknowledgement for packet : 236at NIC : 18

deleting from pending list

[flit:: PacketId=400 Id=0 Type=3 Size=1 Vnet=0 VC=1 Src NI=29 Src Router=13 Dest NI=13 Dest Router=13 Set Time=42000 Width=16 ]
 Got acknowledgement for packet : 372at NIC : 29

deleting from pending list

[flit:: PacketId=353 Id=0 Type=3 Size=1 Vnet=0 VC=0 Src NI=29 Src Router=13 Dest NI=10 Dest Router=10 Set Time=42000 Width=16 ]
 Got acknowledgement for packet : 205at NIC : 26

deleting from pending list


 Original flit : [flit:: PacketId=333 Id=0 Type=3 Size=1 Vnet=1 VC=4 Src NI=9 Src Router=9 Dest NI=30 Dest Router=14 Set Time=42000 Width=16 ]
 Original flit : [flit:: PacketId=199 Id=4 Type=2 Size=5 Vnet=2 VC=8 Src NI=14 Src Router=14 Dest NI=20 Dest Router=4 Set Time=42000 Width=16 ]
 Original flit : [flit:: PacketId=328 Id=0 Type=3 Size=1 Vnet=0 VC=0 Src NI=14 Src Router=14 Dest NI=23 Dest Router=7 Set Time=42000 Width=16 ]
 Original flit : [flit:: PacketId=417 Id=0 Type=3 Size=1 Vnet=0 VC=0 Src NI=6 Src Router=6 Dest NI=22 Dest Router=6 Set Time=42500 Width=16 ]
 Original flit : [flit:: PacketId=389 Id=0 Type=3 Size=1 Vnet=1 VC=5 Src NI=10 Src Router=10 Dest NI=30 Dest Router=14 Set Time=42500 Width=16 ]pushing into pending acknowledgement at NIC : 5 packet id : 446
pushing into pending acknowledgement at NIC : 8 packet id : 447

 Original flit : [flit:: PacketId=287 Id=0 Type=3 Size=1 Vnet=0 VC=0 Src NI=3 Src Router=3 Dest NI=24 Dest Router=8 Set Time=42500 Width=16 ]
 Original flit : [flit:: PacketId=331 Id=0 Type=3 Size=1 Vnet=0 VC=2 Src NI=8 Src Router=8 Dest NI=29 Dest Router=13 Set Time=42500 Width=16 ][flit:: PacketId=308 Id=0 Type=3 Size=1 Vnet=0 VC=1 Src NI=27 Src Router=11 Dest NI=2 Dest Router=2 Set Time=42500 Width=16 ]
 Got acknowledgement for packet : 42at NIC : 18

deleting from pending list

[flit:: PacketId=387 Id=0 Type=3 Size=1 Vnet=0 VC=0 Src NI=20 Src Router=4 Dest NI=0 Dest Router=0 Set Time=42500 Width=16 ]
 Got acknowledgement for packet : 314at NIC : 16

deleting from pending list

pushing into pending acknowledgement at NIC : 7 packet id : 450
pushing into pending acknowledgement at NIC : 11 packet id : 451
pushing into pending acknowledgement at NIC : 9 packet id : 452
pushing into pending acknowledgement at NIC : 0 packet id : 453
pushing into pending acknowledgement at NIC : 3 packet id : 454
pushing into pending acknowledgement at NIC : 10 packet id : 455

 Original flit : [flit:: PacketId=302 Id=0 Type=3 Size=1 Vnet=0 VC=1 Src NI=15 Src Router=15 Dest NI=25 Dest Router=9 Set Time=43000 Width=16 ]
 Original flit : [flit:: PacketId=351 Id=0 Type=3 Size=1 Vnet=0 VC=1 Src NI=11 Src Router=11 Dest NI=24 Dest Router=8 Set Time=43000 Width=16 ]
 Original flit : [flit:: PacketId=349 Id=0 Type=3 Size=1 Vnet=1 VC=4 Src NI=10 Src Router=10 Dest NI=21 Dest Router=5 Set Time=43000 Width=16 ]
 Original flit : [flit:: PacketId=121 Id=4 Type=2 Size=5 Vnet=2 VC=9 Src NI=8 Src Router=8 Dest NI=31 Dest Router=15 Set Time=43000 Width=16 ][flit:: PacketId=295 Id=0 Type=3 Size=1 Vnet=0 VC=0 Src NI=17 Src Router=1 Dest NI=14 Dest Router=14 Set Time=43000 Width=16 ]
 Got acknowledgement for packet : 128at NIC : 30

deleting from pending list


 Original flit : [flit:: PacketId=316 Id=0 Type=3 Size=1 Vnet=1 VC=6 Src NI=9 Src Router=9 Dest NI=30 Dest Router=14 Set Time=43500 Width=16 ][flit:: PacketId=345 Id=0 Type=3 Size=1 Vnet=0 VC=0 Src NI=28 Src Router=12 Dest NI=15 Dest Router=15 Set Time=43500 Width=16 ]
 Got acknowledgement for packet : 225at NIC : 31

deleting from pending list


 Original flit : [flit:: PacketId=275 Id=0 Type=3 Size=1 Vnet=0 VC=0 Src NI=14 Src Router=14 Dest NI=17 Dest Router=1 Set Time=43500 Width=16 ][flit:: PacketId=418 Id=0 Type=3 Size=1 Vnet=0 VC=0 Src NI=21 Src Router=5 Dest NI=5 Dest Router=5 Set Time=43500 Width=16 ]
 Got acknowledgement for packet : 265at NIC : 21

deleting from pending list


 Original flit : [flit:: PacketId=364 Id=0 Type=3 Size=1 Vnet=0 VC=2 Src NI=6 Src Router=6 Dest NI=24 Dest Router=8 Set Time=43500 Width=16 ]pushing into pending acknowledgement at NIC : 7 packet id : 463
pushing into pending acknowledgement at NIC : 11 packet id : 464
pushing into pending acknowledgement at NIC : 0 packet id : 465
pushing into pending acknowledgement at NIC : 4 packet id : 466
pushing into pending acknowledgement at NIC : 10 packet id : 467

 Original flit : [flit:: PacketId=247 Id=4 Type=2 Size=5 Vnet=2 VC=9 Src NI=5 Src Router=5 Dest NI=18 Dest Router=2 Set Time=44000 Width=16 ]
 Original flit : [flit:: PacketId=222 Id=4 Type=2 Size=5 Vnet=2 VC=10 Src NI=0 Src Router=0 Dest NI=29 Dest Router=13 Set Time=44000 Width=16 ][flit:: PacketId=340 Id=0 Type=3 Size=1 Vnet=0 VC=3 Src NI=27 Src Router=11 Dest NI=8 Dest Router=8 Set Time=44000 Width=16 ]
 Got acknowledgement for packet : 67at NIC : 24

deleting from pending list


 Original flit : [flit:: PacketId=315 Id=0 Type=3 Size=1 Vnet=1 VC=4 Src NI=13 Src Router=13 Dest NI=17 Dest Router=1 Set Time=44000 Width=16 ]
 Original flit : [flit:: PacketId=369 Id=0 Type=3 Size=1 Vnet=1 VC=4 Src NI=14 Src Router=14 Dest NI=26 Dest Router=10 Set Time=44000 Width=16 ][flit:: PacketId=401 Id=0 Type=3 Size=1 Vnet=0 VC=0 Src NI=16 Src Router=0 Dest NI=4 Dest Router=4 Set Time=44000 Width=16 ]
 Got acknowledgement for packet : 350at NIC : 20

deleting from pending list

[flit:: PacketId=355 Id=0 Type=3 Size=1 Vnet=0 VC=0 Src NI=17 Src Router=1 Dest NI=7 Dest Router=7 Set Time=44000 Width=16 ]
 Got acknowledgement for packet : 213at NIC : 23

deleting from pending list

[flit:: PacketId=319 Id=0 Type=3 Size=1 Vnet=0 VC=1 Src NI=29 Src Router=13 Dest NI=7 Dest Router=7 Set Time=44500 Width=16 ]
 Got acknowledgement for packet : 187at NIC : 23

deleting from pending list

[flit:: PacketId=344 Id=0 Type=3 Size=1 Vnet=0 VC=0 Src NI=21 Src Router=5 Dest NI=11 Dest Router=11 Set Time=44500 Width=16 ]
 Got acknowledgement for packet : 87at NIC : 27

deleting from pending list

[flit:: PacketId=356 Id=0 Type=3 Size=1 Vnet=0 VC=1 Src NI=23 Src Router=7 Dest NI=4 Dest Router=4 Set Time=44500 Width=16 ]
 Got acknowledgement for packet : 186at NIC : 20

deleting from pending list

[flit:: PacketId=307 Id=0 Type=3 Size=1 Vnet=0 VC=1 Src NI=17 Src Router=1 Dest NI=14 Dest Router=14 Set Time=44500 Width=16 ]
 Got acknowledgement for packet : 50at NIC : 30

deleting from pending list

[flit:: PacketId=312 Id=0 Type=3 Size=1 Vnet=0 VC=1 Src NI=18 Src Router=2 Dest NI=15 Dest Router=15 Set Time=44500 Width=16 ]
 Got acknowledgement for packet : 100at NIC : 31

deleting from pending list

[flit:: PacketId=376 Id=0 Type=3 Size=1 Vnet=0 VC=0 Src NI=23 Src Router=7 Dest NI=10 Dest Router=10 Set Time=44500 Width=16 ]
 Got acknowledgement for packet : 138at NIC : 26

deleting from pending list


 Original flit : [flit:: PacketId=299 Id=0 Type=3 Size=1 Vnet=1 VC=5 Src NI=8 Src Router=8 Dest NI=17 Dest Router=1 Set Time=44500 Width=16 ][flit:: PacketId=305 Id=0 Type=3 Size=1 Vnet=0 VC=1 Src NI=28 Src Router=12 Dest NI=5 Dest Router=5 Set Time=44500 Width=16 ]
 Got acknowledgement for packet : 62at NIC : 21

deleting from pending list

pushing into pending acknowledgement at NIC : 5 packet id : 473
pushing into pending acknowledgement at NIC : 12 packet id : 474
pushing into pending acknowledgement at NIC : 8 packet id : 475

 Original flit : [flit:: PacketId=384 Id=4 Type=2 Size=5 Vnet=2 VC=8 Src NI=9 Src Router=9 Dest NI=25 Dest Router=9 Set Time=44500 Width=16 ][flit:: PacketId=304 Id=0 Type=3 Size=1 Vnet=0 VC=0 Src NI=25 Src Router=9 Dest NI=2 Dest Router=2 Set Time=44500 Width=16 ]
 Got acknowledgement for packet : 193at NIC : 18

deleting from pending list

[flit:: PacketId=276 Id=0 Type=3 Size=1 Vnet=0 VC=0 Src NI=25 Src Router=9 Dest NI=3 Dest Router=3 Set Time=44500 Width=16 ]
 Got acknowledgement for packet : 151at NIC : 19

deleting from pending list

pushing into pending acknowledgement at NIC : 7 packet id : 477
pushing into pending acknowledgement at NIC : 4 packet id : 478
pushing into pending acknowledgement at NIC : 3 packet id : 479
pushing into pending acknowledgement at NIC : 2 packet id : 480

 Original flit : [flit:: PacketId=395 Id=0 Type=3 Size=1 Vnet=1 VC=4 Src NI=5 Src Router=5 Dest NI=18 Dest Router=2 Set Time=45000 Width=16 ][flit:: PacketId=310 Id=0 Type=3 Size=1 Vnet=0 VC=2 Src NI=30 Src Router=14 Dest NI=5 Dest Router=5 Set Time=45000 Width=16 ]
 Got acknowledgement for packet : 45at NIC : 21

deleting from pending list


 Original flit : [flit:: PacketId=219 Id=4 Type=2 Size=5 Vnet=2 VC=8 Src NI=5 Src Router=5 Dest NI=31 Dest Router=15 Set Time=45000 Width=16 ][flit:: PacketId=321 Id=0 Type=3 Size=1 Vnet=0 VC=2 Src NI=27 Src Router=11 Dest NI=4 Dest Router=4 Set Time=45000 Width=16 ]
 Got acknowledgement for packet : 29at NIC : 20

deleting from pending list

[flit:: PacketId=337 Id=0 Type=3 Size=1 Vnet=0 VC=0 Src NI=28 Src Router=12 Dest NI=6 Dest Router=6 Set Time=45500 Width=16 ]
 Got acknowledgement for packet : 124at NIC : 22

deleting from pending list

pushing into pending acknowledgement at NIC : 14 packet id : 483
pushing into pending acknowledgement at NIC : 5 packet id : 484

 Original flit : [flit:: PacketId=362 Id=0 Type=3 Size=1 Vnet=0 VC=0 Src NI=15 Src Router=15 Dest NI=24 Dest Router=8 Set Time=45500 Width=16 ]
 Original flit : [flit:: PacketId=378 Id=0 Type=3 Size=1 Vnet=1 VC=5 Src NI=10 Src Router=10 Dest NI=18 Dest Router=2 Set Time=45500 Width=16 ]pushing into pending acknowledgement at NIC : 11 packet id : 487
pushing into pending acknowledgement at NIC : 9 packet id : 488
pushing into pending acknowledgement at NIC : 0 packet id : 489
pushing into pending acknowledgement at NIC : 10 packet id : 490
pushing into pending acknowledgement at NIC : 6 packet id : 491
pushing into pending acknowledgement at NIC : 1 packet id : 492
[flit:: PacketId=371 Id=0 Type=3 Size=1 Vnet=0 VC=0 Src NI=16 Src Router=0 Dest NI=9 Dest Router=9 Set Time=46000 Width=16 ]
 Got acknowledgement for packet : 255at NIC : 25

deleting from pending list

[flit:: PacketId=324 Id=0 Type=3 Size=1 Vnet=0 VC=0 Src NI=23 Src Router=7 Dest NI=12 Dest Router=12 Set Time=46000 Width=16 ]
 Got acknowledgement for packet : 139at NIC : 28

deleting from pending list

[flit:: PacketId=444 Id=0 Type=3 Size=1 Vnet=0 VC=1 Src NI=22 Src Router=6 Dest NI=6 Dest Router=6 Set Time=46000 Width=16 ]
 Got acknowledgement for packet : 417at NIC : 22

deleting from pending list


 Original flit : [flit:: PacketId=361 Id=0 Type=3 Size=1 Vnet=0 VC=0 Src NI=13 Src Router=13 Dest NI=21 Dest Router=5 Set Time=46500 Width=16 ]
 Original flit : [flit:: PacketId=341 Id=4 Type=2 Size=5 Vnet=2 VC=8 Src NI=14 Src Router=14 Dest NI=28 Dest Router=12 Set Time=46500 Width=16 ]pushing into pending acknowledgement at NIC : 12 packet id : 495

 Original flit : [flit:: PacketId=334 Id=0 Type=3 Size=1 Vnet=1 VC=4 Src NI=3 Src Router=3 Dest NI=24 Dest Router=8 Set Time=46500 Width=16 ]pushing into pending acknowledgement at NIC : 0 packet id : 497
pushing into pending acknowledgement at NIC : 4 packet id : 498
pushing into pending acknowledgement at NIC : 10 packet id : 499
pushing into pending acknowledgement at NIC : 15 packet id : 500

 Original flit : [flit:: PacketId=414 Id=0 Type=3 Size=1 Vnet=1 VC=4 Src NI=11 Src Router=11 Dest NI=19 Dest Router=3 Set Time=47000 Width=16 ]
[...]
 Got acknowledgement for packet : 5115at NIC : 18

deleting from pending list

[flit:: PacketId=5990 Id=0 Type=3 Size=1 Vnet=0 VC=1 Src NI=26 Src Router=10 Dest NI=5 Dest Router=5 Set Time=492000 Width=16 ]
 Got acknowledgement for packet : 5902at NIC : 21

deleting from pending list


 Original flit : [flit:: PacketId=6059 Id=0 Type=3 Size=1 Vnet=1 VC=4 Src NI=8 Src Router=8 Dest NI=16 Dest Router=0 Set Time=492000 Width=16 ][flit:: PacketId=5834 Id=0 Type=3 Size=1 Vnet=0 VC=1 Src NI=20 Src Router=4 Dest NI=15 Dest Router=15 Set Time=492000 Width=16 ]
 Got acknowledgement for packet : 5320at NIC : 31

deleting from pending list


 Original flit : [flit:: PacketId=5953 Id=4 Type=2 Size=5 Vnet=2 VC=8 Src NI=12 Src Router=12 Dest NI=30 Dest Router=14 Set Time=492000 Width=16 ]
 Original flit : [flit:: PacketId=5993 Id=0 Type=3 Size=1 Vnet=1 VC=5 Src NI=8 Src Router=8 Dest NI=22 Dest Router=6 Set Time=492000 Width=16 ]
 Original flit : [flit:: PacketId=6021 Id=0 Type=3 Size=1 Vnet=0 VC=0 Src NI=3 Src Router=3 Dest NI=20 Dest Router=4 Set Time=492000 Width=16 ][flit:: PacketId=6066 Id=0 Type=3 Size=1 Vnet=0 VC=1 Src NI=17 Src Router=1 Dest NI=4 Dest Router=4 Set Time=492500 Width=16 ]
 Got acknowledgement for packet : 5961at NIC : 20

deleting from pending list

pushing into pending acknowledgement at NIC : 4 packet id : 6151
pushing into pending acknowledgement at NIC : 13 packet id : 6152

 Original flit : [flit:: PacketId=5904 Id=4 Type=2 Size=5 Vnet=2 VC=9 Src NI=15 Src Router=15 Dest NI=18 Dest Router=2 Set Time=492500 Width=16 ]pushing into pending acknowledgement at NIC : 2 packet id : 6154
pushing into pending acknowledgement at NIC : 10 packet id : 6155
pushing into pending acknowledgement at NIC : 11 packet id : 6156
pushing into pending acknowledgement at NIC : 10 packet id : 6157

 Original flit : [flit:: PacketId=6072 Id=0 Type=3 Size=1 Vnet=0 VC=0 Src NI=14 Src Router=14 Dest NI=29 Dest Router=13 Set Time=493000 Width=16 ][flit:: PacketId=6050 Id=0 Type=3 Size=1 Vnet=0 VC=0 Src NI=22 Src Router=6 Dest NI=9 Dest Router=9 Set Time=493000 Width=16 ]
 Got acknowledgement for packet : 5804at NIC : 25

deleting from pending list


 Original flit : [flit:: PacketId=5403 Id=4 Type=2 Size=5 Vnet=2 VC=8 Src NI=15 Src Router=15 Dest NI=21 Dest Router=5 Set Time=493000 Width=16 ][flit:: PacketId=6024 Id=0 Type=3 Size=1 Vnet=0 VC=0 Src NI=28 Src Router=12 Dest NI=0 Dest Router=0 Set Time=493000 Width=16 ]
 Got acknowledgement for packet : 5769at NIC : 16

deleting from pending list

[flit:: PacketId=6012 Id=0 Type=3 Size=1 Vnet=0 VC=0 Src NI=16 Src Router=0 Dest NI=14 Dest Router=14 Set Time=493500 Width=16 ]
 Got acknowledgement for packet : 5810at NIC : 30

deleting from pending list


 Original flit : [flit:: PacketId=5689 Id=4 Type=2 Size=5 Vnet=2 VC=8 Src NI=10 Src Router=10 Dest NI=17 Dest Router=1 Set Time=493500 Width=16 ]
 Original flit : [flit:: PacketId=6062 Id=0 Type=3 Size=1 Vnet=0 VC=1 Src NI=9 Src Router=9 Dest NI=16 Dest Router=0 Set Time=493500 Width=16 ]
 Original flit : [flit:: PacketId=5974 Id=4 Type=2 Size=5 Vnet=2 VC=9 Src NI=2 Src Router=2 Dest NI=28 Dest Router=12 Set Time=493500 Width=16 ]
 Original flit : [flit:: PacketId=5393 Id=4 Type=2 Size=5 Vnet=2 VC=8 Src NI=4 Src Router=4 Dest NI=29 Dest Router=13 Set Time=493500 Width=16 ]pushing into pending acknowledgement at NIC : 10 packet id : 6164
pushing into pending acknowledgement at NIC : 6 packet id : 6165
pushing into pending acknowledgement at NIC : 15 packet id : 6166
pushing into pending acknowledgement at NIC : 3 packet id : 6167
[flit:: PacketId=6003 Id=0 Type=3 Size=1 Vnet=0 VC=0 Src NI=26 Src Router=10 Dest NI=3 Dest Router=3 Set Time=494000 Width=16 ]
 Got acknowledgement for packet : 5905at NIC : 19

deleting from pending list

[flit:: PacketId=6053 Id=0 Type=3 Size=1 Vnet=0 VC=0 Src NI=21 Src Router=5 Dest NI=7 Dest Router=7 Set Time=494000 Width=16 ]
 Got acknowledgement for packet : 5891at NIC : 23

deleting from pending list

[flit:: PacketId=6098 Id=0 Type=3 Size=1 Vnet=0 VC=1 Src NI=21 Src Router=5 Dest NI=9 Dest Router=9 Set Time=494000 Width=16 ]
 Got acknowledgement for packet : 5971at NIC : 25

deleting from pending list


 Original flit : [flit:: PacketId=5764 Id=4 Type=2 Size=5 Vnet=2 VC=9 Src NI=9 Src Router=9 Dest NI=21 Dest Router=5 Set Time=494000 Width=16 ][flit:: PacketId=6033 Id=0 Type=3 Size=1 Vnet=0 VC=0 Src NI=24 Src Router=8 Dest NI=10 Dest Router=10 Set Time=494000 Width=16 ]
 Got acknowledgement for packet : 5940at NIC : 26

deleting from pending list

[flit:: PacketId=6055 Id=0 Type=3 Size=1 Vnet=0 VC=1 Src NI=25 Src Router=9 Dest NI=14 Dest Router=14 Set Time=494000 Width=16 ]
 Got acknowledgement for packet : 5645at NIC : 30

deleting from pending list


 Original flit : [flit:: PacketId=6037 Id=4 Type=2 Size=5 Vnet=2 VC=9 Src NI=10 Src Router=10 Dest NI=30 Dest Router=14 Set Time=494500 Width=16 ]
 Original flit : [flit:: PacketId=5964 Id=4 Type=2 Size=5 Vnet=2 VC=8 Src NI=12 Src Router=12 Dest NI=31 Dest Router=15 Set Time=494500 Width=16 ]
 Original flit : [flit:: PacketId=5828 Id=4 Type=2 Size=5 Vnet=2 VC=9 Src NI=10 Src Router=10 Dest NI=16 Dest Router=0 Set Time=494500 Width=16 ]
 Original flit : [flit:: PacketId=5893 Id=4 Type=2 Size=5 Vnet=2 VC=10 Src NI=3 Src Router=3 Dest NI=21 Dest Router=5 Set Time=494500 Width=16 ][flit:: PacketId=6065 Id=0 Type=3 Size=1 Vnet=0 VC=2 Src NI=16 Src Router=0 Dest NI=9 Dest Router=9 Set Time=494500 Width=16 ]
 Got acknowledgement for packet : 5812at NIC : 25

deleting from pending list

pushing into pending acknowledgement at NIC : 9 packet id : 6173

 Original flit : [flit:: PacketId=5931 Id=0 Type=3 Size=1 Vnet=0 VC=0 Src NI=15 Src Router=15 Dest NI=28 Dest Router=12 Set Time=494500 Width=16 ]
 Original flit : [flit:: PacketId=6010 Id=0 Type=3 Size=1 Vnet=0 VC=1 Src NI=14 Src Router=14 Dest NI=19 Dest Router=3 Set Time=494500 Width=16 ]pushing into pending acknowledgement at NIC : 6 packet id : 6176
pushing into pending acknowledgement at NIC : 7 packet id : 6177
pushing into pending acknowledgement at NIC : 15 packet id : 6178
pushing into pending acknowledgement at NIC : 1 packet id : 6179
pushing into pending acknowledgement at NIC : 3 packet id : 6180
pushing into pending acknowledgement at NIC : 13 packet id : 6181
pushing into pending acknowledgement at NIC : 11 packet id : 6182
pushing into pending acknowledgement at NIC : 8 packet id : 6183

 Original flit : [flit:: PacketId=5767 Id=4 Type=2 Size=5 Vnet=2 VC=9 Src NI=4 Src Router=4 Dest NI=19 Dest Router=3 Set Time=495000 Width=16 ][flit:: PacketId=6087 Id=0 Type=3 Size=1 Vnet=0 VC=1 Src NI=20 Src Router=4 Dest NI=12 Dest Router=12 Set Time=495000 Width=16 ]
 Got acknowledgement for packet : 6009at NIC : 28

deleting from pending list

[flit:: PacketId=6058 Id=0 Type=3 Size=1 Vnet=0 VC=0 Src NI=19 Src Router=3 Dest NI=15 Dest Router=15 Set Time=495000 Width=16 ]
 Got acknowledgement for packet : 5962at NIC : 31

deleting from pending list

[flit:: PacketId=6039 Id=0 Type=3 Size=1 Vnet=0 VC=0 Src NI=19 Src Router=3 Dest NI=4 Dest Router=4 Set Time=495000 Width=16 ]
 Got acknowledgement for packet : 5724at NIC : 20

deleting from pending list

[flit:: PacketId=6001 Id=0 Type=3 Size=1 Vnet=0 VC=0 Src NI=20 Src Router=4 Dest NI=11 Dest Router=11 Set Time=495000 Width=16 ]
 Got acknowledgement for packet : 5824at NIC : 27

deleting from pending list

[flit:: PacketId=6110 Id=0 Type=3 Size=1 Vnet=0 VC=1 Src NI=26 Src Router=10 Dest NI=11 Dest Router=11 Set Time=495500 Width=16 ]
 Got acknowledgement for packet : 6046at NIC : 27

deleting from pending list


 Original flit : [flit:: PacketId=6126 Id=0 Type=3 Size=1 Vnet=0 VC=0 Src NI=5 Src Router=5 Dest NI=22 Dest Router=6 Set Time=495500 Width=16 ][flit:: PacketId=6114 Id=0 Type=3 Size=1 Vnet=0 VC=0 Src NI=29 Src Router=13 Dest NI=14 Dest Router=14 Set Time=495500 Width=16 ]
 Got acknowledgement for packet : 6019at NIC : 30

deleting from pending list


 Original flit : [flit:: PacketId=6086 Id=0 Type=3 Size=1 Vnet=1 VC=4 Src NI=12 Src Router=12 Dest NI=31 Dest Router=15 Set Time=495500 Width=16 ]
 Original flit : [flit:: PacketId=6103 Id=0 Type=3 Size=1 Vnet=1 VC=4 Src NI=7 Src Router=7 Dest NI=26 Dest Router=10 Set Time=495500 Width=16 ]
 Original flit : [flit:: PacketId=6104 Id=0 Type=3 Size=1 Vnet=0 VC=0 Src NI=3 Src Router=3 Dest NI=17 Dest Router=1 Set Time=495500 Width=16 ]
 Original flit : [flit:: PacketId=6071 Id=0 Type=3 Size=1 Vnet=1 VC=4 Src NI=2 Src Router=2 Dest NI=21 Dest Router=5 Set Time=495500 Width=16 ]
 Original flit : [flit:: PacketId=6060 Id=0 Type=3 Size=1 Vnet=1 VC=4 Src NI=6 Src Router=6 Dest NI=24 Dest Router=8 Set Time=495500 Width=16 ]
 Original flit : [flit:: PacketId=5260 Id=4 Type=2 Size=5 Vnet=2 VC=8 Src NI=9 Src Router=9 Dest NI=18 Dest Router=2 Set Time=495500 Width=16 ]
 Original flit : [flit:: PacketId=5344 Id=4 Type=2 Size=5 Vnet=2 VC=8 Src NI=9 Src Router=9 Dest NI=19 Dest Router=3 Set Time=495500 Width=16 ]pushing into pending acknowledgement at NIC : 7 packet id : 6193
pushing into pending acknowledgement at NIC : 11 packet id : 6194
pushing into pending acknowledgement at NIC : 9 packet id : 6195
pushing into pending acknowledgement at NIC : 12 packet id : 6196
pushing into pending acknowledgement at NIC : 0 packet id : 6197

 Original flit : [flit:: PacketId=5830 Id=4 Type=2 Size=5 Vnet=2 VC=9 Src NI=8 Src Router=8 Dest NI=29 Dest Router=13 Set Time=496000 Width=16 ]
 Original flit : [flit:: PacketId=6023 Id=4 Type=2 Size=5 Vnet=2 VC=8 Src NI=8 Src Router=8 Dest NI=16 Dest Router=0 Set Time=496000 Width=16 ][flit:: PacketId=6095 Id=0 Type=3 Size=1 Vnet=0 VC=2 Src NI=22 Src Router=6 Dest NI=11 Dest Router=11 Set Time=496000 Width=16 ]
 Got acknowledgement for packet : 5806at NIC : 27

deleting from pending list


 Original flit : [flit:: PacketId=6082 Id=0 Type=3 Size=1 Vnet=1 VC=4 Src NI=6 Src Router=6 Dest NI=27 Dest Router=11 Set Time=496500 Width=16 ][flit:: PacketId=6097 Id=0 Type=3 Size=1 Vnet=0 VC=1 Src NI=17 Src Router=1 Dest NI=4 Dest Router=4 Set Time=496500 Width=16 ]
 Got acknowledgement for packet : 5989at NIC : 20

deleting from pending list


 Original flit : [flit:: PacketId=6125 Id=0 Type=3 Size=1 Vnet=0 VC=1 Src NI=10 Src Router=10 Dest NI=22 Dest Router=6 Set Time=496500 Width=16 ][flit:: PacketId=6079 Id=0 Type=3 Size=1 Vnet=0 VC=1 Src NI=25 Src Router=9 Dest NI=14 Dest Router=14 Set Time=496500 Width=16 ]
 Got acknowledgement for packet : 5554at NIC : 30

deleting from pending list


 Original flit : [flit:: PacketId=5966 Id=4 Type=2 Size=5 Vnet=2 VC=8 Src NI=15 Src Router=15 Dest NI=26 Dest Router=10 Set Time=496500 Width=16 ][flit:: PacketId=6131 Id=0 Type=3 Size=1 Vnet=0 VC=1 Src NI=18 Src Router=2 Dest NI=1 Dest Router=1 Set Time=496500 Width=16 ]
 Got acknowledgement for packet : 5999at NIC : 17

deleting from pending list


 Original flit : [flit:: PacketId=6120 Id=0 Type=3 Size=1 Vnet=0 VC=0 Src NI=0 Src Router=0 Dest NI=24 Dest Router=8 Set Time=496500 Width=16 ]pushing into pending acknowledgement at NIC : 13 packet id : 6204
pushing into pending acknowledgement at NIC : 3 packet id : 6205
pushing into pending acknowledgement at NIC : 9 packet id : 6206
[flit:: PacketId=6004 Id=0 Type=3 Size=1 Vnet=0 VC=0 Src NI=25 Src Router=9 Dest NI=3 Dest Router=3 Set Time=497000 Width=16 ]
 Got acknowledgement for packet : 5822at NIC : 19

deleting from pending list

[flit:: PacketId=6056 Id=0 Type=3 Size=1 Vnet=0 VC=0 Src NI=29 Src Router=13 Dest NI=7 Dest Router=7 Set Time=497000 Width=16 ]
 Got acknowledgement for packet : 5873at NIC : 23

deleting from pending list


 Original flit : [flit:: PacketId=6115 Id=4 Type=2 Size=5 Vnet=2 VC=10 Src NI=2 Src Router=2 Dest NI=18 Dest Router=2 Set Time=497000 Width=16 ]
 Original flit : [flit:: PacketId=6102 Id=0 Type=3 Size=1 Vnet=0 VC=0 Src NI=4 Src Router=4 Dest NI=25 Dest Router=9 Set Time=497000 Width=16 ][flit:: PacketId=6067 Id=0 Type=3 Size=1 Vnet=0 VC=0 Src NI=22 Src Router=6 Dest NI=12 Dest Router=12 Set Time=497000 Width=16 ]
 Got acknowledgement for packet : 5942at NIC : 28

deleting from pending list

[flit:: PacketId=6146 Id=0 Type=3 Size=1 Vnet=0 VC=0 Src NI=23 Src Router=7 Dest NI=11 Dest Router=11 Set Time=497500 Width=16 ]
 Got acknowledgement for packet : 6076at NIC : 27

deleting from pending list

[flit:: PacketId=6121 Id=0 Type=3 Size=1 Vnet=0 VC=0 Src NI=28 Src Router=12 Dest NI=4 Dest Router=4 Set Time=497500 Width=16 ]
 Got acknowledgement for packet : 5978at NIC : 20

deleting from pending list


 Original flit : [flit:: PacketId=6070 Id=0 Type=3 Size=1 Vnet=1 VC=4 Src NI=8 Src Router=8 Dest NI=22 Dest Router=6 Set Time=497500 Width=16 ]
 Original flit : [flit:: PacketId=5959 Id=4 Type=2 Size=5 Vnet=2 VC=10 Src NI=13 Src Router=13 Dest NI=26 Dest Router=10 Set Time=497500 Width=16 ]
 Original flit : [flit:: PacketId=6057 Id=4 Type=2 Size=5 Vnet=2 VC=9 Src NI=13 Src Router=13 Dest NI=25 Dest Router=9 Set Time=497500 Width=16 ]pushing into pending acknowledgement at NIC : 13 packet id : 6212

 Original flit : [flit:: PacketId=6089 Id=0 Type=3 Size=1 Vnet=0 VC=0 Src NI=14 Src Router=14 Dest NI=18 Dest Router=2 Set Time=497500 Width=16 ]pushing into pending acknowledgement at NIC : 8 packet id : 6214
pushing into pending acknowledgement at NIC : 14 packet id : 6215
pushing into pending acknowledgement at NIC : 3 packet id : 6216
pushing into pending acknowledgement at NIC : 4 packet id : 6217
pushing into pending acknowledgement at NIC : 5 packet id : 6218
pushing into pending acknowledgement at NIC : 0 packet id : 6219
[flit:: PacketId=6135 Id=0 Type=3 Size=1 Vnet=0 VC=1 Src NI=22 Src Router=6 Dest NI=2 Dest Router=2 Set Time=498000 Width=16 ]
 Got acknowledgement for packet : 6081at NIC : 18

deleting from pending list

[flit:: PacketId=6109 Id=0 Type=3 Size=1 Vnet=0 VC=1 Src NI=22 Src Router=6 Dest NI=9 Dest Router=9 Set Time=498000 Width=16 ]
 Got acknowledgement for packet : 5991at NIC : 25

deleting from pending list


 Original flit : [flit:: PacketId=6096 Id=0 Type=3 Size=1 Vnet=0 VC=1 Src NI=1 Src Router=1 Dest NI=24 Dest Router=8 Set Time=498000 Width=16 ]
 Original flit : [flit:: PacketId=6178 Id=0 Type=3 Size=1 Vnet=1 VC=4 Src NI=15 Src Router=15 Dest NI=31 Dest Router=15 Set Time=498000 Width=16 ][flit:: PacketId=6052 Id=0 Type=3 Size=1 Vnet=0 VC=0 Src NI=16 Src Router=0 Dest NI=14 Dest Router=14 Set Time=498000 Width=16 ]
 Got acknowledgement for packet : 5915at NIC : 30

deleting from pending list

[flit:: PacketId=6158 Id=0 Type=3 Size=1 Vnet=0 VC=1 Src NI=29 Src Router=13 Dest NI=14 Dest Router=14 Set Time=498500 Width=16 ]
 Got acknowledgement for packet : 6072at NIC : 30

deleting from pending list


 Original flit : [flit:: PacketId=6156 Id=0 Type=3 Size=1 Vnet=1 VC=5 Src NI=11 Src Router=11 Dest NI=31 Dest Router=15 Set Time=498500 Width=16 ]
 Original flit : [flit:: PacketId=6093 Id=4 Type=2 Size=5 Vnet=2 VC=9 Src NI=3 Src Router=3 Dest NI=17 Dest Router=1 Set Time=498500 Width=16 ]
 Original flit : [flit:: PacketId=6128 Id=0 Type=3 Size=1 Vnet=1 VC=4 Src NI=0 Src Router=0 Dest NI=24 Dest Router=8 Set Time=498500 Width=16 ]
 Original flit : [flit:: PacketId=5809 Id=4 Type=2 Size=5 Vnet=2 VC=10 Src NI=2 Src Router=2 Dest NI=29 Dest Router=13 Set Time=498500 Width=16 ]pushing into pending acknowledgement at NIC : 13 packet id : 6226
[flit:: PacketId=6107 Id=0 Type=3 Size=1 Vnet=0 VC=2 Src NI=26 Src Router=10 Dest NI=2 Dest Router=2 Set Time=498500 Width=16 ]
 Got acknowledgement for packet : 5983at NIC : 18

deleting from pending list


 Original flit : [flit:: PacketId=6138 Id=0 Type=3 Size=1 Vnet=0 VC=1 Src NI=2 Src Router=2 Dest NI=23 Dest Router=7 Set Time=498500 Width=16 ]
 Original flit : [flit:: PacketId=5874 Id=4 Type=2 Size=5 Vnet=2 VC=11 Src NI=15 Src Router=15 Dest NI=19 Dest Router=3 Set Time=498500 Width=16 ]pushing into pending acknowledgement at NIC : 8 packet id : 6229
pushing into pending acknowledgement at NIC : 6 packet id : 6230
pushing into pending acknowledgement at NIC : 11 packet id : 6231

 Original flit : [flit:: PacketId=5651 Id=4 Type=2 Size=5 Vnet=2 VC=10 Src NI=8 Src Router=8 Dest NI=19 Dest Router=3 Set Time=499000 Width=16 ]
 Original flit : [flit:: PacketId=6165 Id=0 Type=3 Size=1 Vnet=0 VC=0 Src NI=6 Src Router=6 Dest NI=23 Dest Router=7 Set Time=499000 Width=16 ][flit:: PacketId=6063 Id=0 Type=3 Size=1 Vnet=0 VC=3 Src NI=25 Src Router=9 Dest NI=2 Dest Router=2 Set Time=499000 Width=16 ]
 Got acknowledgement for packet : 4565at NIC : 18

deleting from pending list

[flit:: PacketId=6137 Id=0 Type=3 Size=1 Vnet=0 VC=0 Src NI=29 Src Router=13 Dest NI=9 Dest Router=9 Set Time=499000 Width=16 ]
 Got acknowledgement for packet : 6083at NIC : 25

deleting from pending list

[flit:: PacketId=6139 Id=0 Type=3 Size=1 Vnet=0 VC=0 Src NI=19 Src Router=3 Dest NI=11 Dest Router=11 Set Time=499500 Width=16 ]
 Got acknowledgement for packet : 6030at NIC : 27

deleting from pending list


 Original flit : [flit:: PacketId=6164 Id=0 Type=3 Size=1 Vnet=0 VC=0 Src NI=10 Src Router=10 Dest NI=22 Dest Router=6 Set Time=499500 Width=16 ][flit:: PacketId=6078 Id=0 Type=3 Size=1 Vnet=0 VC=0 Src NI=16 Src Router=0 Dest NI=10 Dest Router=10 Set Time=499500 Width=16 ]
 Got acknowledgement for packet : 5930at NIC : 26

deleting from pending list


 Original flit : [flit:: PacketId=6073 Id=4 Type=2 Size=5 Vnet=2 VC=8 Src NI=10 Src Router=10 Dest NI=24 Dest Router=8 Set Time=499500 Width=16 ]
 Original flit : [flit:: PacketId=6195 Id=0 Type=3 Size=1 Vnet=0 VC=2 Src NI=9 Src Router=9 Dest NI=25 Dest Router=9 Set Time=499500 Width=16 ]pushing into pending acknowledgement at NIC : 13 packet id : 6237
pushing into pending acknowledgement at NIC : 7 packet id : 6238
[flit:: PacketId=6106 Id=0 Type=3 Size=1 Vnet=0 VC=2 Src NI=17 Src Router=1 Dest NI=7 Dest Router=7 Set Time=499500 Width=16 ]
 Got acknowledgement for packet : 5923at NIC : 23

deleting from pending list

pushing into pending acknowledgement at NIC : 8 packet id : 6239
pushing into pending acknowledgement at NIC : 14 packet id : 6240
pushing into pending acknowledgement at NIC : 10 packet id : 6241
pushing into pending acknowledgement at NIC : 9 packet id : 6242
pushing into pending acknowledgement at NIC : 1 packet id : 6243
pushing into pending acknowledgement at NIC : 8 packet id : 6244

 Original flit : [flit:: PacketId=6069 Id=0 Type=3 Size=1 Vnet=0 VC=0 Src NI=13 Src Router=13 Dest NI=19 Dest Router=3 Set Time=500000 Width=16 ]
 Original flit : [flit:: PacketId=6141 Id=0 Type=3 Size=1 Vnet=1 VC=4 Src NI=6 Src Router=6 Dest NI=23 Dest Router=7 Set Time=500000 Width=16 ]
 Original flit : [flit:: PacketId=6020 Id=4 Type=2 Size=5 Vnet=2 VC=11 Src NI=10 Src Router=10 Dest NI=18 Dest Router=2 Set Time=500000 Width=16 ][flit:: PacketId=6147 Id=0 Type=3 Size=1 Vnet=0 VC=0 Src NI=16 Src Router=0 Dest NI=8 Dest Router=8 Set Time=500000 Width=16 ]
 Got acknowledgement for packet : 6059at NIC : 24

deleting from pending list


 Original flit : [flit:: PacketId=6151 Id=0 Type=3 Size=1 Vnet=0 VC=0 Src NI=4 Src Router=4 Dest NI=21 Dest Router=5 Set Time=500000 Width=16 ][flit:: PacketId=6124 Id=0 Type=3 Size=1 Vnet=0 VC=0 Src NI=25 Src Router=9 Dest NI=1 Dest Router=1 Set Time=500000 Width=16 ]
 Got acknowledgement for packet : 5794at NIC : 17

deleting from pending list

[flit:: PacketId=6169 Id=0 Type=3 Size=1 Vnet=0 VC=1 Src NI=30 Src Router=14 Dest NI=10 Dest Router=10 Set Time=500000 Width=16 ]
 Got acknowledgement for packet : 6037at NIC : 26

deleting from pending list

[flit:: PacketId=6094 Id=0 Type=3 Size=1 Vnet=0 VC=0 Src NI=17 Src Router=1 Dest NI=14 Dest Router=14 Set Time=500000 Width=16 ]
 Got acknowledgement for packet : 5955at NIC : 30

deleting from pending list

[flit:: PacketId=6123 Id=0 Type=3 Size=1 Vnet=0 VC=1 Src NI=17 Src Router=1 Dest NI=6 Dest Router=6 Set Time=500000 Width=16 ]
 Got acknowledgement for packet : 6045at NIC : 22

deleting from pending list

Exiting @ tick 500000 because Network Tester completed simCycles
