Global frequency set at 1000000000000 ticks per second
gem5 Simulator System.  https://www.gem5.org
gem5 is copyrighted software; use the --copyright option for details.

gem5 version 22.1.0.0
gem5 compiled Jun  1 2023 18:09:42
gem5 started Jun  1 2023 18:14:28
gem5 executing on adwaith-HP-ProDesk-600-G5-PCI-MT, pid 69571
command line: build/X86/gem5.debug configs/example/garnet_synth_traffic.py --num-cpus=16 --network=garnet --topology=Mesh_XY --routing-algorithm=1 --mesh-rows=4 --router-latency=3 --injectionrate=0.01 --sim-cycles=5000000 --num-dirs=16



[flit:: Flit_ID=1 PacketId=0 Id=0 Type=3 Size=1 Vnet=0 VC=0 Src NI=10 Src Router=10 Dest NI=18 Dest Router=2 Set Time=12500 Width=16 ]



[flit:: Flit_ID=2 PacketId=1 Id=0 Type=3 Size=1 Vnet=1 VC=4 Src NI=1 Src Router=1 Dest NI=28 Dest Router=12 Set Time=17500 Width=16 ]



[flit:: Flit_ID=3 PacketId=2 Id=0 Type=0 Size=5 Vnet=2 VC=8 Src NI=14 Src Router=14 Dest NI=17 Dest Router=1 Set Time=18500 Width=16 ]



[flit:: Flit_ID=4 PacketId=2 Id=1 Type=1 Size=5 Vnet=2 VC=8 Src NI=14 Src Router=14 Dest NI=17 Dest Router=1 Set Time=18500 Width=16 ]



[flit:: Flit_ID=5 PacketId=2 Id=2 Type=1 Size=5 Vnet=2 VC=8 Src NI=14 Src Router=14 Dest NI=17 Dest Router=1 Set Time=18500 Width=16 ]



[flit:: Flit_ID=6 PacketId=2 Id=3 Type=1 Size=5 Vnet=2 VC=8 Src NI=14 Src Router=14 Dest NI=17 Dest Router=1 Set Time=18500 Width=16 ]



[flit:: Flit_ID=7 PacketId=2 Id=4 Type=2 Size=5 Vnet=2 VC=8 Src NI=14 Src Router=14 Dest NI=17 Dest Router=1 Set Time=18500 Width=16 ]



[flit:: Flit_ID=8 PacketId=3 Id=0 Type=3 Size=1 Vnet=1 VC=4 Src NI=4 Src Router=4 Dest NI=30 Dest Router=14 Set Time=24500 Width=16 ]


 In router 5 


[flit:: Flit_ID=9 PacketId=4 Id=0 Type=3 Size=1 Vnet=0 VC=0 Src NI=8 Src Router=8 Dest NI=23 Dest Router=7 Set Time=33500 Width=16 ]



[flit:: Flit_ID=10 PacketId=5 Id=0 Type=0 Size=5 Vnet=2 VC=8 Src NI=3 Src Router=3 Dest NI=20 Dest Router=4 Set Time=39500 Width=16 ]



[flit:: Flit_ID=11 PacketId=5 Id=1 Type=1 Size=5 Vnet=2 VC=8 Src NI=3 Src Router=3 Dest NI=20 Dest Router=4 Set Time=39500 Width=16 ]



[flit:: Flit_ID=12 PacketId=5 Id=2 Type=1 Size=5 Vnet=2 VC=8 Src NI=3 Src Router=3 Dest NI=20 Dest Router=4 Set Time=39500 Width=16 ]



[flit:: Flit_ID=13 PacketId=5 Id=3 Type=1 Size=5 Vnet=2 VC=8 Src NI=3 Src Router=3 Dest NI=20 Dest Router=4 Set Time=39500 Width=16 ]



[flit:: Flit_ID=14 PacketId=5 Id=4 Type=2 Size=5 Vnet=2 VC=8 Src NI=3 Src Router=3 Dest NI=20 Dest Router=4 Set Time=39500 Width=16 ]



[flit:: Flit_ID=15 PacketId=6 Id=0 Type=3 Size=1 Vnet=1 VC=4 Src NI=10 Src Router=10 Dest NI=21 Dest Router=5 Set Time=60500 Width=16 ]



[flit:: Flit_ID=16 PacketId=7 Id=0 Type=3 Size=1 Vnet=0 VC=1 Src NI=8 Src Router=8 Dest NI=24 Dest Router=8 Set Time=62500 Width=16 ]



[flit:: Flit_ID=17 PacketId=8 Id=0 Type=0 Size=5 Vnet=2 VC=9 Src NI=14 Src Router=14 Dest NI=18 Dest Router=2 Set Time=70500 Width=16 ]



[flit:: Flit_ID=18 PacketId=8 Id=1 Type=1 Size=5 Vnet=2 VC=9 Src NI=14 Src Router=14 Dest NI=18 Dest Router=2 Set Time=70500 Width=16 ]



[flit:: Flit_ID=19 PacketId=8 Id=2 Type=1 Size=5 Vnet=2 VC=9 Src NI=14 Src Router=14 Dest NI=18 Dest Router=2 Set Time=70500 Width=16 ]



[flit:: Flit_ID=20 PacketId=8 Id=3 Type=1 Size=5 Vnet=2 VC=9 Src NI=14 Src Router=14 Dest NI=18 Dest Router=2 Set Time=70500 Width=16 ]



[flit:: Flit_ID=21 PacketId=8 Id=4 Type=2 Size=5 Vnet=2 VC=9 Src NI=14 Src Router=14 Dest NI=18 Dest Router=2 Set Time=70500 Width=16 ]



[flit:: Flit_ID=22 PacketId=9 Id=0 Type=0 Size=5 Vnet=2 VC=8 Src NI=1 Src Router=1 Dest NI=21 Dest Router=5 Set Time=75500 Width=16 ]



[flit:: Flit_ID=23 PacketId=9 Id=1 Type=1 Size=5 Vnet=2 VC=8 Src NI=1 Src Router=1 Dest NI=21 Dest Router=5 Set Time=75500 Width=16 ]



[flit:: Flit_ID=24 PacketId=9 Id=2 Type=1 Size=5 Vnet=2 VC=8 Src NI=1 Src Router=1 Dest NI=21 Dest Router=5 Set Time=75500 Width=16 ]



[flit:: Flit_ID=25 PacketId=9 Id=3 Type=1 Size=5 Vnet=2 VC=8 Src NI=1 Src Router=1 Dest NI=21 Dest Router=5 Set Time=75500 Width=16 ]



[flit:: Flit_ID=26 PacketId=9 Id=4 Type=2 Size=5 Vnet=2 VC=8 Src NI=1 Src Router=1 Dest NI=21 Dest Router=5 Set Time=75500 Width=16 ]


 In router 5 


[flit:: Flit_ID=27 PacketId=10 Id=0 Type=3 Size=1 Vnet=0 VC=0 Src NI=2 Src Router=2 Dest NI=28 Dest Router=12 Set Time=86500 Width=16 ]



[flit:: Flit_ID=28 PacketId=11 Id=0 Type=3 Size=1 Vnet=1 VC=4 Src NI=0 Src Router=0 Dest NI=24 Dest Router=8 Set Time=95500 Width=16 ]



[flit:: Flit_ID=29 PacketId=12 Id=0 Type=3 Size=1 Vnet=0 VC=0 Src NI=6 Src Router=6 Dest NI=30 Dest Router=14 Set Time=100500 Width=16 ]



[flit:: Flit_ID=30 PacketId=13 Id=0 Type=0 Size=5 Vnet=2 VC=8 Src NI=8 Src Router=8 Dest NI=31 Dest Router=15 Set Time=102500 Width=16 ]



[flit:: Flit_ID=31 PacketId=13 Id=1 Type=1 Size=5 Vnet=2 VC=8 Src NI=8 Src Router=8 Dest NI=31 Dest Router=15 Set Time=102500 Width=16 ]



[flit:: Flit_ID=32 PacketId=13 Id=2 Type=1 Size=5 Vnet=2 VC=8 Src NI=8 Src Router=8 Dest NI=31 Dest Router=15 Set Time=102500 Width=16 ]



[flit:: Flit_ID=33 PacketId=13 Id=3 Type=1 Size=5 Vnet=2 VC=8 Src NI=8 Src Router=8 Dest NI=31 Dest Router=15 Set Time=102500 Width=16 ]



[flit:: Flit_ID=34 PacketId=13 Id=4 Type=2 Size=5 Vnet=2 VC=8 Src NI=8 Src Router=8 Dest NI=31 Dest Router=15 Set Time=102500 Width=16 ]



[flit:: Flit_ID=35 PacketId=14 Id=0 Type=0 Size=5 Vnet=2 VC=9 Src NI=8 Src Router=8 Dest NI=25 Dest Router=9 Set Time=115500 Width=16 ]



[flit:: Flit_ID=36 PacketId=14 Id=1 Type=1 Size=5 Vnet=2 VC=9 Src NI=8 Src Router=8 Dest NI=25 Dest Router=9 Set Time=115500 Width=16 ]



[flit:: Flit_ID=37 PacketId=14 Id=2 Type=1 Size=5 Vnet=2 VC=9 Src NI=8 Src Router=8 Dest NI=25 Dest Router=9 Set Time=115500 Width=16 ]



[flit:: Flit_ID=38 PacketId=14 Id=3 Type=1 Size=5 Vnet=2 VC=9 Src NI=8 Src Router=8 Dest NI=25 Dest Router=9 Set Time=115500 Width=16 ]



[flit:: Flit_ID=39 PacketId=14 Id=4 Type=2 Size=5 Vnet=2 VC=9 Src NI=8 Src Router=8 Dest NI=25 Dest Router=9 Set Time=115500 Width=16 ]



[flit:: Flit_ID=40 PacketId=15 Id=0 Type=3 Size=1 Vnet=0 VC=0 Src NI=14 Src Router=14 Dest NI=26 Dest Router=10 Set Time=117500 Width=16 ]



[flit:: Flit_ID=41 PacketId=16 Id=0 Type=3 Size=1 Vnet=0 VC=0 Src NI=7 Src Router=7 Dest NI=19 Dest Router=3 Set Time=126500 Width=16 ]



[flit:: Flit_ID=42 PacketId=17 Id=0 Type=3 Size=1 Vnet=0 VC=0 Src NI=12 Src Router=12 Dest NI=23 Dest Router=7 Set Time=126500 Width=16 ]



[flit:: Flit_ID=43 PacketId=18 Id=0 Type=3 Size=1 Vnet=0 VC=0 Src NI=15 Src Router=15 Dest NI=31 Dest Router=15 Set Time=126500 Width=16 ]



[flit:: Flit_ID=44 PacketId=19 Id=0 Type=3 Size=1 Vnet=0 VC=1 Src NI=15 Src Router=15 Dest NI=30 Dest Router=14 Set Time=129500 Width=16 ]



[flit:: Flit_ID=45 PacketId=20 Id=0 Type=0 Size=5 Vnet=2 VC=8 Src NI=0 Src Router=0 Dest NI=22 Dest Router=6 Set Time=131500 Width=16 ]



[flit:: Flit_ID=46 PacketId=20 Id=1 Type=1 Size=5 Vnet=2 VC=8 Src NI=0 Src Router=0 Dest NI=22 Dest Router=6 Set Time=131500 Width=16 ]



[flit:: Flit_ID=47 PacketId=20 Id=2 Type=1 Size=5 Vnet=2 VC=8 Src NI=0 Src Router=0 Dest NI=22 Dest Router=6 Set Time=131500 Width=16 ]



[flit:: Flit_ID=48 PacketId=20 Id=3 Type=1 Size=5 Vnet=2 VC=8 Src NI=0 Src Router=0 Dest NI=22 Dest Router=6 Set Time=131500 Width=16 ]



[flit:: Flit_ID=49 PacketId=20 Id=4 Type=2 Size=5 Vnet=2 VC=8 Src NI=0 Src Router=0 Dest NI=22 Dest Router=6 Set Time=131500 Width=16 ]



[flit:: Flit_ID=50 PacketId=21 Id=0 Type=0 Size=5 Vnet=2 VC=8 Src NI=13 Src Router=13 Dest NI=27 Dest Router=11 Set Time=136500 Width=16 ]



[flit:: Flit_ID=51 PacketId=21 Id=1 Type=1 Size=5 Vnet=2 VC=8 Src NI=13 Src Router=13 Dest NI=27 Dest Router=11 Set Time=136500 Width=16 ]



[flit:: Flit_ID=52 PacketId=21 Id=2 Type=1 Size=5 Vnet=2 VC=8 Src NI=13 Src Router=13 Dest NI=27 Dest Router=11 Set Time=136500 Width=16 ]



[flit:: Flit_ID=53 PacketId=21 Id=3 Type=1 Size=5 Vnet=2 VC=8 Src NI=13 Src Router=13 Dest NI=27 Dest Router=11 Set Time=136500 Width=16 ]



[flit:: Flit_ID=54 PacketId=21 Id=4 Type=2 Size=5 Vnet=2 VC=8 Src NI=13 Src Router=13 Dest NI=27 Dest Router=11 Set Time=136500 Width=16 ]



[flit:: Flit_ID=55 PacketId=22 Id=0 Type=0 Size=5 Vnet=2 VC=8 Src NI=7 Src Router=7 Dest NI=26 Dest Router=10 Set Time=138500 Width=16 ]



[flit:: Flit_ID=56 PacketId=22 Id=1 Type=1 Size=5 Vnet=2 VC=8 Src NI=7 Src Router=7 Dest NI=26 Dest Router=10 Set Time=138500 Width=16 ]



[flit:: Flit_ID=57 PacketId=22 Id=2 Type=1 Size=5 Vnet=2 VC=8 Src NI=7 Src Router=7 Dest NI=26 Dest Router=10 Set Time=138500 Width=16 ]



[flit:: Flit_ID=58 PacketId=22 Id=3 Type=1 Size=5 Vnet=2 VC=8 Src NI=7 Src Router=7 Dest NI=26 Dest Router=10 Set Time=138500 Width=16 ]



[flit:: Flit_ID=59 PacketId=22 Id=4 Type=2 Size=5 Vnet=2 VC=8 Src NI=7 Src Router=7 Dest NI=26 Dest Router=10 Set Time=138500 Width=16 ]



[flit:: Flit_ID=60 PacketId=23 Id=0 Type=3 Size=1 Vnet=1 VC=4 Src NI=15 Src Router=15 Dest NI=31 Dest Router=15 Set Time=146500 Width=16 ]



[flit:: Flit_ID=61 PacketId=24 Id=0 Type=0 Size=5 Vnet=2 VC=8 Src NI=4 Src Router=4 Dest NI=27 Dest Router=11 Set Time=152500 Width=16 ]



[flit:: Flit_ID=62 PacketId=24 Id=1 Type=1 Size=5 Vnet=2 VC=8 Src NI=4 Src Router=4 Dest NI=27 Dest Router=11 Set Time=152500 Width=16 ]



[flit:: Flit_ID=63 PacketId=24 Id=2 Type=1 Size=5 Vnet=2 VC=8 Src NI=4 Src Router=4 Dest NI=27 Dest Router=11 Set Time=152500 Width=16 ]



[flit:: Flit_ID=64 PacketId=24 Id=3 Type=1 Size=5 Vnet=2 VC=8 Src NI=4 Src Router=4 Dest NI=27 Dest Router=11 Set Time=152500 Width=16 ]



[flit:: Flit_ID=65 PacketId=24 Id=4 Type=2 Size=5 Vnet=2 VC=8 Src NI=4 Src Router=4 Dest NI=27 Dest Router=11 Set Time=152500 Width=16 ]


 In router 5 


[flit:: Flit_ID=66 PacketId=25 Id=0 Type=0 Size=5 Vnet=2 VC=8 Src NI=2 Src Router=2 Dest NI=26 Dest Router=10 Set Time=158500 Width=16 ]



[flit:: Flit_ID=67 PacketId=25 Id=1 Type=1 Size=5 Vnet=2 VC=8 Src NI=2 Src Router=2 Dest NI=26 Dest Router=10 Set Time=158500 Width=16 ]



[flit:: Flit_ID=68 PacketId=25 Id=2 Type=1 Size=5 Vnet=2 VC=8 Src NI=2 Src Router=2 Dest NI=26 Dest Router=10 Set Time=158500 Width=16 ]



[flit:: Flit_ID=69 PacketId=25 Id=3 Type=1 Size=5 Vnet=2 VC=8 Src NI=2 Src Router=2 Dest NI=26 Dest Router=10 Set Time=158500 Width=16 ]



[flit:: Flit_ID=70 PacketId=25 Id=4 Type=2 Size=5 Vnet=2 VC=8 Src NI=2 Src Router=2 Dest NI=26 Dest Router=10 Set Time=158500 Width=16 ]



[flit:: Flit_ID=71 PacketId=26 Id=0 Type=0 Size=5 Vnet=2 VC=8 Src NI=9 Src Router=9 Dest NI=22 Dest Router=6 Set Time=158500 Width=16 ]



[flit:: Flit_ID=72 PacketId=26 Id=1 Type=1 Size=5 Vnet=2 VC=8 Src NI=9 Src Router=9 Dest NI=22 Dest Router=6 Set Time=158500 Width=16 ]



[flit:: Flit_ID=73 PacketId=26 Id=2 Type=1 Size=5 Vnet=2 VC=8 Src NI=9 Src Router=9 Dest NI=22 Dest Router=6 Set Time=158500 Width=16 ]



[flit:: Flit_ID=74 PacketId=26 Id=3 Type=1 Size=5 Vnet=2 VC=8 Src NI=9 Src Router=9 Dest NI=22 Dest Router=6 Set Time=158500 Width=16 ]



[flit:: Flit_ID=75 PacketId=26 Id=4 Type=2 Size=5 Vnet=2 VC=8 Src NI=9 Src Router=9 Dest NI=22 Dest Router=6 Set Time=158500 Width=16 ]



[flit:: Flit_ID=76 PacketId=27 Id=0 Type=3 Size=1 Vnet=1 VC=4 Src NI=8 Src Router=8 Dest NI=22 Dest Router=6 Set Time=159500 Width=16 ]



[flit:: Flit_ID=77 PacketId=28 Id=0 Type=3 Size=1 Vnet=0 VC=1 Src NI=12 Src Router=12 Dest NI=22 Dest Router=6 Set Time=175500 Width=16 ]



[flit:: Flit_ID=78 PacketId=29 Id=0 Type=0 Size=5 Vnet=2 VC=9 Src NI=0 Src Router=0 Dest NI=16 Dest Router=0 Set Time=188500 Width=16 ]



[flit:: Flit_ID=79 PacketId=29 Id=1 Type=1 Size=5 Vnet=2 VC=9 Src NI=0 Src Router=0 Dest NI=16 Dest Router=0 Set Time=188500 Width=16 ]



[flit:: Flit_ID=80 PacketId=29 Id=2 Type=1 Size=5 Vnet=2 VC=9 Src NI=0 Src Router=0 Dest NI=16 Dest Router=0 Set Time=188500 Width=16 ]



[flit:: Flit_ID=81 PacketId=29 Id=3 Type=1 Size=5 Vnet=2 VC=9 Src NI=0 Src Router=0 Dest NI=16 Dest Router=0 Set Time=188500 Width=16 ]



[flit:: Flit_ID=82 PacketId=29 Id=4 Type=2 Size=5 Vnet=2 VC=9 Src NI=0 Src Router=0 Dest NI=16 Dest Router=0 Set Time=188500 Width=16 ]



[flit:: Flit_ID=83 PacketId=30 Id=0 Type=3 Size=1 Vnet=1 VC=5 Src NI=8 Src Router=8 Dest NI=21 Dest Router=5 Set Time=193500 Width=16 ]



[flit:: Flit_ID=84 PacketId=31 Id=0 Type=3 Size=1 Vnet=0 VC=0 Src NI=13 Src Router=13 Dest NI=28 Dest Router=12 Set Time=195500 Width=16 ]



[flit:: Flit_ID=85 PacketId=32 Id=0 Type=3 Size=1 Vnet=1 VC=4 Src NI=7 Src Router=7 Dest NI=25 Dest Router=9 Set Time=208500 Width=16 ]



[flit:: Flit_ID=86 PacketId=33 Id=0 Type=0 Size=5 Vnet=2 VC=8 Src NI=15 Src Router=15 Dest NI=26 Dest Router=10 Set Time=208500 Width=16 ]



[flit:: Flit_ID=87 PacketId=33 Id=1 Type=1 Size=5 Vnet=2 VC=8 Src NI=15 Src Router=15 Dest NI=26 Dest Router=10 Set Time=208500 Width=16 ]



[flit:: Flit_ID=88 PacketId=33 Id=2 Type=1 Size=5 Vnet=2 VC=8 Src NI=15 Src Router=15 Dest NI=26 Dest Router=10 Set Time=208500 Width=16 ]



[flit:: Flit_ID=89 PacketId=33 Id=3 Type=1 Size=5 Vnet=2 VC=8 Src NI=15 Src Router=15 Dest NI=26 Dest Router=10 Set Time=208500 Width=16 ]



[flit:: Flit_ID=90 PacketId=33 Id=4 Type=2 Size=5 Vnet=2 VC=8 Src NI=15 Src Router=15 Dest NI=26 Dest Router=10 Set Time=208500 Width=16 ]



[flit:: Flit_ID=91 PacketId=34 Id=0 Type=3 Size=1 Vnet=1 VC=4 Src NI=6 Src Router=6 Dest NI=16 Dest Router=0 Set Time=211500 Width=16 ]



[flit:: Flit_ID=92 PacketId=35 Id=0 Type=0 Size=5 Vnet=2 VC=9 Src NI=3 Src Router=3 Dest NI=28 Dest Router=12 Set Time=211500 Width=16 ]



[flit:: Flit_ID=93 PacketId=35 Id=1 Type=1 Size=5 Vnet=2 VC=9 Src NI=3 Src Router=3 Dest NI=28 Dest Router=12 Set Time=211500 Width=16 ]



[flit:: Flit_ID=94 PacketId=35 Id=2 Type=1 Size=5 Vnet=2 VC=9 Src NI=3 Src Router=3 Dest NI=28 Dest Router=12 Set Time=211500 Width=16 ]



[flit:: Flit_ID=95 PacketId=35 Id=3 Type=1 Size=5 Vnet=2 VC=9 Src NI=3 Src Router=3 Dest NI=28 Dest Router=12 Set Time=211500 Width=16 ]



[flit:: Flit_ID=96 PacketId=35 Id=4 Type=2 Size=5 Vnet=2 VC=9 Src NI=3 Src Router=3 Dest NI=28 Dest Router=12 Set Time=211500 Width=16 ]



[flit:: Flit_ID=97 PacketId=36 Id=0 Type=3 Size=1 Vnet=0 VC=0 Src NI=3 Src Router=3 Dest NI=26 Dest Router=10 Set Time=214500 Width=16 ]



[flit:: Flit_ID=98 PacketId=37 Id=0 Type=3 Size=1 Vnet=0 VC=0 Src NI=1 Src Router=1 Dest NI=19 Dest Router=3 Set Time=215500 Width=16 ]



[flit:: Flit_ID=99 PacketId=38 Id=0 Type=0 Size=5 Vnet=2 VC=9 Src NI=4 Src Router=4 Dest NI=23 Dest Router=7 Set Time=216500 Width=16 ]



[flit:: Flit_ID=100 PacketId=38 Id=1 Type=1 Size=5 Vnet=2 VC=9 Src NI=4 Src Router=4 Dest NI=23 Dest Router=7 Set Time=216500 Width=16 ]



[flit:: Flit_ID=101 PacketId=38 Id=2 Type=1 Size=5 Vnet=2 VC=9 Src NI=4 Src Router=4 Dest NI=23 Dest Router=7 Set Time=216500 Width=16 ]



[flit:: Flit_ID=102 PacketId=38 Id=3 Type=1 Size=5 Vnet=2 VC=9 Src NI=4 Src Router=4 Dest NI=23 Dest Router=7 Set Time=216500 Width=16 ]



[flit:: Flit_ID=103 PacketId=38 Id=4 Type=2 Size=5 Vnet=2 VC=9 Src NI=4 Src Router=4 Dest NI=23 Dest Router=7 Set Time=216500 Width=16 ]


 In router 5 

Changing destination to : 13 from : 7 for flit : 99 for packet : 0 

here in modified routing algorithm


Router id : 5
flit_id : 99
Input port direction: West
my x : 1
my y : 1
destination_id : 13
destination x : 1
destination y : 3
x hops : 0
y hops : 2
x direction : 1
y direction : 1
Going to North

here in modified routing algorithm


Router id : 9
flit_id : 99
Input port direction: South
my x : 1
my y : 2
destination_id : 13
destination x : 1
destination y : 3
x hops : 0
y hops : 1
x direction : 1
y direction : 1
Going to North

 Rerouted packet : 0 reached : 7 from : 13 


[flit:: Flit_ID=104 PacketId=39 Id=0 Type=3 Size=1 Vnet=1 VC=4 Src NI=12 Src Router=12 Dest NI=26 Dest Router=10 Set Time=238500 Width=16 ]



[flit:: Flit_ID=105 PacketId=40 Id=0 Type=0 Size=5 Vnet=2 VC=8 Src NI=11 Src Router=11 Dest NI=17 Dest Router=1 Set Time=243500 Width=16 ]



[flit:: Flit_ID=106 PacketId=40 Id=1 Type=1 Size=5 Vnet=2 VC=8 Src NI=11 Src Router=11 Dest NI=17 Dest Router=1 Set Time=243500 Width=16 ]



[flit:: Flit_ID=107 PacketId=40 Id=2 Type=1 Size=5 Vnet=2 VC=8 Src NI=11 Src Router=11 Dest NI=17 Dest Router=1 Set Time=243500 Width=16 ]



[flit:: Flit_ID=108 PacketId=40 Id=3 Type=1 Size=5 Vnet=2 VC=8 Src NI=11 Src Router=11 Dest NI=17 Dest Router=1 Set Time=243500 Width=16 ]



[flit:: Flit_ID=109 PacketId=40 Id=4 Type=2 Size=5 Vnet=2 VC=8 Src NI=11 Src Router=11 Dest NI=17 Dest Router=1 Set Time=243500 Width=16 ]


 In router 5 


[flit:: Flit_ID=110 PacketId=41 Id=0 Type=3 Size=1 Vnet=1 VC=4 Src NI=2 Src Router=2 Dest NI=18 Dest Router=2 Set Time=250500 Width=16 ]



[flit:: Flit_ID=111 PacketId=42 Id=0 Type=3 Size=1 Vnet=0 VC=2 Src NI=12 Src Router=12 Dest NI=30 Dest Router=14 Set Time=259500 Width=16 ]



[flit:: Flit_ID=112 PacketId=43 Id=0 Type=0 Size=5 Vnet=2 VC=9 Src NI=1 Src Router=1 Dest NI=21 Dest Router=5 Set Time=259500 Width=16 ]



[flit:: Flit_ID=113 PacketId=43 Id=1 Type=1 Size=5 Vnet=2 VC=9 Src NI=1 Src Router=1 Dest NI=21 Dest Router=5 Set Time=259500 Width=16 ]



[flit:: Flit_ID=114 PacketId=43 Id=2 Type=1 Size=5 Vnet=2 VC=9 Src NI=1 Src Router=1 Dest NI=21 Dest Router=5 Set Time=259500 Width=16 ]



[flit:: Flit_ID=115 PacketId=43 Id=3 Type=1 Size=5 Vnet=2 VC=9 Src NI=1 Src Router=1 Dest NI=21 Dest Router=5 Set Time=259500 Width=16 ]



[flit:: Flit_ID=116 PacketId=43 Id=4 Type=2 Size=5 Vnet=2 VC=9 Src NI=1 Src Router=1 Dest NI=21 Dest Router=5 Set Time=259500 Width=16 ]


 In router 5 

Changing destination to : 13 from : 5 for flit : 112 for packet : 0 

here in modified routing algorithm


Router id : 5
flit_id : 112
Input port direction: South
my x : 1
my y : 1
destination_id : 13
destination x : 1
destination y : 3
x hops : 0
y hops : 2
x direction : 1
y direction : 1
Going to North

here in modified routing algorithm


Router id : 9
flit_id : 112
Input port direction: South
my x : 1
my y : 2
destination_id : 13
destination x : 1
destination y : 3
x hops : 0
y hops : 1
x direction : 1
y direction : 1
Going to North

 Rerouted packet : 0 reached : 5 from : 13 


[flit:: Flit_ID=117 PacketId=44 Id=0 Type=3 Size=1 Vnet=1 VC=5 Src NI=7 Src Router=7 Dest NI=29 Dest Router=13 Set Time=271500 Width=16 ]



[flit:: Flit_ID=118 PacketId=45 Id=0 Type=0 Size=5 Vnet=2 VC=9 Src NI=15 Src Router=15 Dest NI=24 Dest Router=8 Set Time=279500 Width=16 ]



[flit:: Flit_ID=119 PacketId=45 Id=1 Type=1 Size=5 Vnet=2 VC=9 Src NI=15 Src Router=15 Dest NI=24 Dest Router=8 Set Time=279500 Width=16 ]



[flit:: Flit_ID=120 PacketId=45 Id=2 Type=1 Size=5 Vnet=2 VC=9 Src NI=15 Src Router=15 Dest NI=24 Dest Router=8 Set Time=279500 Width=16 ]



[flit:: Flit_ID=121 PacketId=45 Id=3 Type=1 Size=5 Vnet=2 VC=9 Src NI=15 Src Router=15 Dest NI=24 Dest Router=8 Set Time=279500 Width=16 ]



[flit:: Flit_ID=122 PacketId=45 Id=4 Type=2 Size=5 Vnet=2 VC=9 Src NI=15 Src Router=15 Dest NI=24 Dest Router=8 Set Time=279500 Width=16 ]



[flit:: Flit_ID=123 PacketId=46 Id=0 Type=3 Size=1 Vnet=1 VC=5 Src NI=4 Src Router=4 Dest NI=23 Dest Router=7 Set Time=282500 Width=16 ]



[flit:: Flit_ID=124 PacketId=47 Id=0 Type=0 Size=5 Vnet=2 VC=9 Src NI=7 Src Router=7 Dest NI=30 Dest Router=14 Set Time=288500 Width=16 ]



[flit:: Flit_ID=125 PacketId=47 Id=1 Type=1 Size=5 Vnet=2 VC=9 Src NI=7 Src Router=7 Dest NI=30 Dest Router=14 Set Time=288500 Width=16 ]



[flit:: Flit_ID=126 PacketId=47 Id=2 Type=1 Size=5 Vnet=2 VC=9 Src NI=7 Src Router=7 Dest NI=30 Dest Router=14 Set Time=288500 Width=16 ]



[flit:: Flit_ID=127 PacketId=47 Id=3 Type=1 Size=5 Vnet=2 VC=9 Src NI=7 Src Router=7 Dest NI=30 Dest Router=14 Set Time=288500 Width=16 ]



[flit:: Flit_ID=128 PacketId=47 Id=4 Type=2 Size=5 Vnet=2 VC=9 Src NI=7 Src Router=7 Dest NI=30 Dest Router=14 Set Time=288500 Width=16 ]



[flit:: Flit_ID=129 PacketId=48 Id=0 Type=0 Size=5 Vnet=2 VC=9 Src NI=9 Src Router=9 Dest NI=25 Dest Router=9 Set Time=289500 Width=16 ]



[flit:: Flit_ID=130 PacketId=48 Id=1 Type=1 Size=5 Vnet=2 VC=9 Src NI=9 Src Router=9 Dest NI=25 Dest Router=9 Set Time=289500 Width=16 ]



[flit:: Flit_ID=131 PacketId=48 Id=2 Type=1 Size=5 Vnet=2 VC=9 Src NI=9 Src Router=9 Dest NI=25 Dest Router=9 Set Time=289500 Width=16 ]



[flit:: Flit_ID=132 PacketId=48 Id=3 Type=1 Size=5 Vnet=2 VC=9 Src NI=9 Src Router=9 Dest NI=25 Dest Router=9 Set Time=289500 Width=16 ]



[flit:: Flit_ID=133 PacketId=48 Id=4 Type=2 Size=5 Vnet=2 VC=9 Src NI=9 Src Router=9 Dest NI=25 Dest Router=9 Set Time=289500 Width=16 ]



[flit:: Flit_ID=134 PacketId=49 Id=0 Type=3 Size=1 Vnet=1 VC=5 Src NI=10 Src Router=10 Dest NI=18 Dest Router=2 Set Time=290500 Width=16 ]



[flit:: Flit_ID=135 PacketId=50 Id=0 Type=3 Size=1 Vnet=1 VC=5 Src NI=15 Src Router=15 Dest NI=31 Dest Router=15 Set Time=293500 Width=16 ]



[flit:: Flit_ID=136 PacketId=51 Id=0 Type=0 Size=5 Vnet=2 VC=10 Src NI=4 Src Router=4 Dest NI=23 Dest Router=7 Set Time=299500 Width=16 ]



[flit:: Flit_ID=137 PacketId=51 Id=1 Type=1 Size=5 Vnet=2 VC=10 Src NI=4 Src Router=4 Dest NI=23 Dest Router=7 Set Time=299500 Width=16 ]



[flit:: Flit_ID=138 PacketId=51 Id=2 Type=1 Size=5 Vnet=2 VC=10 Src NI=4 Src Router=4 Dest NI=23 Dest Router=7 Set Time=299500 Width=16 ]



[flit:: Flit_ID=139 PacketId=51 Id=3 Type=1 Size=5 Vnet=2 VC=10 Src NI=4 Src Router=4 Dest NI=23 Dest Router=7 Set Time=299500 Width=16 ]



[flit:: Flit_ID=140 PacketId=51 Id=4 Type=2 Size=5 Vnet=2 VC=10 Src NI=4 Src Router=4 Dest NI=23 Dest Router=7 Set Time=299500 Width=16 ]



[flit:: Flit_ID=141 PacketId=52 Id=0 Type=3 Size=1 Vnet=0 VC=1 Src NI=1 Src Router=1 Dest NI=25 Dest Router=9 Set Time=300500 Width=16 ]



[flit:: Flit_ID=142 PacketId=53 Id=0 Type=3 Size=1 Vnet=1 VC=4 Src NI=9 Src Router=9 Dest NI=24 Dest Router=8 Set Time=301500 Width=16 ]


 In router 5 


[flit:: Flit_ID=143 PacketId=54 Id=0 Type=0 Size=5 Vnet=2 VC=8 Src NI=6 Src Router=6 Dest NI=19 Dest Router=3 Set Time=305500 Width=16 ]



[flit:: Flit_ID=144 PacketId=54 Id=1 Type=1 Size=5 Vnet=2 VC=8 Src NI=6 Src Router=6 Dest NI=19 Dest Router=3 Set Time=305500 Width=16 ]



[flit:: Flit_ID=145 PacketId=54 Id=2 Type=1 Size=5 Vnet=2 VC=8 Src NI=6 Src Router=6 Dest NI=19 Dest Router=3 Set Time=305500 Width=16 ]



[flit:: Flit_ID=146 PacketId=54 Id=3 Type=1 Size=5 Vnet=2 VC=8 Src NI=6 Src Router=6 Dest NI=19 Dest Router=3 Set Time=305500 Width=16 ]



[flit:: Flit_ID=147 PacketId=54 Id=4 Type=2 Size=5 Vnet=2 VC=8 Src NI=6 Src Router=6 Dest NI=19 Dest Router=3 Set Time=305500 Width=16 ]



[flit:: Flit_ID=148 PacketId=55 Id=0 Type=3 Size=1 Vnet=0 VC=1 Src NI=6 Src Router=6 Dest NI=20 Dest Router=4 Set Time=310500 Width=16 ]



[flit:: Flit_ID=149 PacketId=56 Id=0 Type=3 Size=1 Vnet=1 VC=6 Src NI=7 Src Router=7 Dest NI=22 Dest Router=6 Set Time=315500 Width=16 ]



[flit:: Flit_ID=150 PacketId=57 Id=0 Type=3 Size=1 Vnet=0 VC=1 Src NI=13 Src Router=13 Dest NI=31 Dest Router=15 Set Time=323500 Width=16 ]



[flit:: Flit_ID=151 PacketId=58 Id=0 Type=0 Size=5 Vnet=2 VC=10 Src NI=3 Src Router=3 Dest NI=31 Dest Router=15 Set Time=326500 Width=16 ]



[flit:: Flit_ID=152 PacketId=58 Id=1 Type=1 Size=5 Vnet=2 VC=10 Src NI=3 Src Router=3 Dest NI=31 Dest Router=15 Set Time=326500 Width=16 ]



[flit:: Flit_ID=153 PacketId=58 Id=2 Type=1 Size=5 Vnet=2 VC=10 Src NI=3 Src Router=3 Dest NI=31 Dest Router=15 Set Time=326500 Width=16 ]



[flit:: Flit_ID=154 PacketId=58 Id=3 Type=1 Size=5 Vnet=2 VC=10 Src NI=3 Src Router=3 Dest NI=31 Dest Router=15 Set Time=326500 Width=16 ]



[flit:: Flit_ID=155 PacketId=58 Id=4 Type=2 Size=5 Vnet=2 VC=10 Src NI=3 Src Router=3 Dest NI=31 Dest Router=15 Set Time=326500 Width=16 ]



[flit:: Flit_ID=156 PacketId=59 Id=0 Type=3 Size=1 Vnet=1 VC=5 Src NI=0 Src Router=0 Dest NI=28 Dest Router=12 Set Time=337500 Width=16 ]



[flit:: Flit_ID=157 PacketId=60 Id=0 Type=0 Size=5 Vnet=2 VC=10 Src NI=1 Src Router=1 Dest NI=21 Dest Router=5 Set Time=344500 Width=16 ]



[flit:: Flit_ID=158 PacketId=60 Id=1 Type=1 Size=5 Vnet=2 VC=10 Src NI=1 Src Router=1 Dest NI=21 Dest Router=5 Set Time=344500 Width=16 ]



[flit:: Flit_ID=159 PacketId=60 Id=2 Type=1 Size=5 Vnet=2 VC=10 Src NI=1 Src Router=1 Dest NI=21 Dest Router=5 Set Time=344500 Width=16 ]



[flit:: Flit_ID=160 PacketId=60 Id=3 Type=1 Size=5 Vnet=2 VC=10 Src NI=1 Src Router=1 Dest NI=21 Dest Router=5 Set Time=344500 Width=16 ]



[flit:: Flit_ID=161 PacketId=60 Id=4 Type=2 Size=5 Vnet=2 VC=10 Src NI=1 Src Router=1 Dest NI=21 Dest Router=5 Set Time=344500 Width=16 ]



[flit:: Flit_ID=162 PacketId=61 Id=0 Type=0 Size=5 Vnet=2 VC=9 Src NI=6 Src Router=6 Dest NI=27 Dest Router=11 Set Time=344500 Width=16 ]



[flit:: Flit_ID=163 PacketId=61 Id=1 Type=1 Size=5 Vnet=2 VC=9 Src NI=6 Src Router=6 Dest NI=27 Dest Router=11 Set Time=344500 Width=16 ]



[flit:: Flit_ID=164 PacketId=61 Id=2 Type=1 Size=5 Vnet=2 VC=9 Src NI=6 Src Router=6 Dest NI=27 Dest Router=11 Set Time=344500 Width=16 ]



[flit:: Flit_ID=165 PacketId=61 Id=3 Type=1 Size=5 Vnet=2 VC=9 Src NI=6 Src Router=6 Dest NI=27 Dest Router=11 Set Time=344500 Width=16 ]



[flit:: Flit_ID=166 PacketId=61 Id=4 Type=2 Size=5 Vnet=2 VC=9 Src NI=6 Src Router=6 Dest NI=27 Dest Router=11 Set Time=344500 Width=16 ]


 In router 5 

Changing destination to : 13 from : 5 for flit : 157 for packet : 0 

here in modified routing algorithm


Router id : 5
flit_id : 157
Input port direction: South
my x : 1
my y : 1
destination_id : 13
destination x : 1
destination y : 3
x hops : 0
y hops : 2
x direction : 1
y direction : 1
Going to North

here in modified routing algorithm


Router id : 9
flit_id : 157
Input port direction: South
my x : 1
my y : 2
destination_id : 13
destination x : 1
destination y : 3
x hops : 0
y hops : 1
x direction : 1
y direction : 1
Going to North

 Rerouted packet : 0 reached : 5 from : 13 


[flit:: Flit_ID=167 PacketId=62 Id=0 Type=3 Size=1 Vnet=0 VC=1 Src NI=2 Src Router=2 Dest NI=20 Dest Router=4 Set Time=357500 Width=16 ]



[flit:: Flit_ID=168 PacketId=63 Id=0 Type=3 Size=1 Vnet=0 VC=0 Src NI=0 Src Router=0 Dest NI=16 Dest Router=0 Set Time=360500 Width=16 ]



[flit:: Flit_ID=169 PacketId=64 Id=0 Type=3 Size=1 Vnet=1 VC=4 Src NI=13 Src Router=13 Dest NI=17 Dest Router=1 Set Time=366500 Width=16 ]



[flit:: Flit_ID=170 PacketId=65 Id=0 Type=3 Size=1 Vnet=1 VC=4 Src NI=14 Src Router=14 Dest NI=22 Dest Router=6 Set Time=374500 Width=16 ]



[flit:: Flit_ID=171 PacketId=66 Id=0 Type=3 Size=1 Vnet=0 VC=0 Src NI=4 Src Router=4 Dest NI=28 Dest Router=12 Set Time=388500 Width=16 ]



[flit:: Flit_ID=172 PacketId=67 Id=0 Type=3 Size=1 Vnet=1 VC=6 Src NI=8 Src Router=8 Dest NI=22 Dest Router=6 Set Time=392500 Width=16 ]



[flit:: Flit_ID=173 PacketId=68 Id=0 Type=3 Size=1 Vnet=1 VC=5 Src NI=1 Src Router=1 Dest NI=30 Dest Router=14 Set Time=414500 Width=16 ]



[flit:: Flit_ID=174 PacketId=69 Id=0 Type=3 Size=1 Vnet=0 VC=1 Src NI=7 Src Router=7 Dest NI=20 Dest Router=4 Set Time=415500 Width=16 ]



[flit:: Flit_ID=175 PacketId=70 Id=0 Type=3 Size=1 Vnet=0 VC=1 Src NI=10 Src Router=10 Dest NI=30 Dest Router=14 Set Time=421500 Width=16 ]



[flit:: Flit_ID=176 PacketId=71 Id=0 Type=0 Size=5 Vnet=2 VC=8 Src NI=10 Src Router=10 Dest NI=22 Dest Router=6 Set Time=429500 Width=16 ]



[flit:: Flit_ID=177 PacketId=71 Id=1 Type=1 Size=5 Vnet=2 VC=8 Src NI=10 Src Router=10 Dest NI=22 Dest Router=6 Set Time=429500 Width=16 ]



[flit:: Flit_ID=178 PacketId=71 Id=2 Type=1 Size=5 Vnet=2 VC=8 Src NI=10 Src Router=10 Dest NI=22 Dest Router=6 Set Time=429500 Width=16 ]



[flit:: Flit_ID=179 PacketId=71 Id=3 Type=1 Size=5 Vnet=2 VC=8 Src NI=10 Src Router=10 Dest NI=22 Dest Router=6 Set Time=429500 Width=16 ]



[flit:: Flit_ID=180 PacketId=71 Id=4 Type=2 Size=5 Vnet=2 VC=8 Src NI=10 Src Router=10 Dest NI=22 Dest Router=6 Set Time=429500 Width=16 ]



[flit:: Flit_ID=181 PacketId=72 Id=0 Type=3 Size=1 Vnet=0 VC=1 Src NI=0 Src Router=0 Dest NI=25 Dest Router=9 Set Time=434500 Width=16 ]



[flit:: Flit_ID=182 PacketId=73 Id=0 Type=3 Size=1 Vnet=1 VC=6 Src NI=0 Src Router=0 Dest NI=26 Dest Router=10 Set Time=440500 Width=16 ]



[flit:: Flit_ID=183 PacketId=74 Id=0 Type=3 Size=1 Vnet=0 VC=2 Src NI=8 Src Router=8 Dest NI=25 Dest Router=9 Set Time=448500 Width=16 ]



[flit:: Flit_ID=184 PacketId=75 Id=0 Type=3 Size=1 Vnet=0 VC=2 Src NI=13 Src Router=13 Dest NI=18 Dest Router=2 Set Time=451500 Width=16 ]



[flit:: Flit_ID=185 PacketId=76 Id=0 Type=3 Size=1 Vnet=1 VC=7 Src NI=7 Src Router=7 Dest NI=16 Dest Router=0 Set Time=469500 Width=16 ]



[flit:: Flit_ID=186 PacketId=77 Id=0 Type=0 Size=5 Vnet=2 VC=10 Src NI=7 Src Router=7 Dest NI=17 Dest Router=1 Set Time=486500 Width=16 ]



[flit:: Flit_ID=187 PacketId=77 Id=1 Type=1 Size=5 Vnet=2 VC=10 Src NI=7 Src Router=7 Dest NI=17 Dest Router=1 Set Time=486500 Width=16 ]



[flit:: Flit_ID=188 PacketId=77 Id=2 Type=1 Size=5 Vnet=2 VC=10 Src NI=7 Src Router=7 Dest NI=17 Dest Router=1 Set Time=486500 Width=16 ]



[flit:: Flit_ID=189 PacketId=77 Id=3 Type=1 Size=5 Vnet=2 VC=10 Src NI=7 Src Router=7 Dest NI=17 Dest Router=1 Set Time=486500 Width=16 ]



[flit:: Flit_ID=190 PacketId=77 Id=4 Type=2 Size=5 Vnet=2 VC=10 Src NI=7 Src Router=7 Dest NI=17 Dest Router=1 Set Time=486500 Width=16 ]



[flit:: Flit_ID=191 PacketId=78 Id=0 Type=3 Size=1 Vnet=0 VC=3 Src NI=8 Src Router=8 Dest NI=23 Dest Router=7 Set Time=490500 Width=16 ]


 In router 5 


[flit:: Flit_ID=192 PacketId=79 Id=0 Type=3 Size=1 Vnet=0 VC=0 Src NI=5 Src Router=5 Dest NI=29 Dest Router=13 Set Time=506500 Width=16 ]



[flit:: Flit_ID=193 PacketId=80 Id=0 Type=3 Size=1 Vnet=0 VC=3 Src NI=12 Src Router=12 Dest NI=28 Dest Router=12 Set Time=514500 Width=16 ]



[flit:: Flit_ID=194 PacketId=81 Id=0 Type=0 Size=5 Vnet=2 VC=9 Src NI=13 Src Router=13 Dest NI=31 Dest Router=15 Set Time=524500 Width=16 ]



[flit:: Flit_ID=195 PacketId=81 Id=1 Type=1 Size=5 Vnet=2 VC=9 Src NI=13 Src Router=13 Dest NI=31 Dest Router=15 Set Time=524500 Width=16 ]



[flit:: Flit_ID=196 PacketId=81 Id=2 Type=1 Size=5 Vnet=2 VC=9 Src NI=13 Src Router=13 Dest NI=31 Dest Router=15 Set Time=524500 Width=16 ]



[flit:: Flit_ID=197 PacketId=81 Id=3 Type=1 Size=5 Vnet=2 VC=9 Src NI=13 Src Router=13 Dest NI=31 Dest Router=15 Set Time=524500 Width=16 ]



[flit:: Flit_ID=198 PacketId=81 Id=4 Type=2 Size=5 Vnet=2 VC=9 Src NI=13 Src Router=13 Dest NI=31 Dest Router=15 Set Time=524500 Width=16 ]



[flit:: Flit_ID=199 PacketId=82 Id=0 Type=0 Size=5 Vnet=2 VC=10 Src NI=15 Src Router=15 Dest NI=20 Dest Router=4 Set Time=532500 Width=16 ]



[flit:: Flit_ID=200 PacketId=82 Id=1 Type=1 Size=5 Vnet=2 VC=10 Src NI=15 Src Router=15 Dest NI=20 Dest Router=4 Set Time=532500 Width=16 ]



[flit:: Flit_ID=201 PacketId=82 Id=2 Type=1 Size=5 Vnet=2 VC=10 Src NI=15 Src Router=15 Dest NI=20 Dest Router=4 Set Time=532500 Width=16 ]



[flit:: Flit_ID=202 PacketId=82 Id=3 Type=1 Size=5 Vnet=2 VC=10 Src NI=15 Src Router=15 Dest NI=20 Dest Router=4 Set Time=532500 Width=16 ]



[flit:: Flit_ID=203 PacketId=82 Id=4 Type=2 Size=5 Vnet=2 VC=10 Src NI=15 Src Router=15 Dest NI=20 Dest Router=4 Set Time=532500 Width=16 ]



[flit:: Flit_ID=204 PacketId=83 Id=0 Type=3 Size=1 Vnet=1 VC=5 Src NI=12 Src Router=12 Dest NI=30 Dest Router=14 Set Time=536500 Width=16 ]



[flit:: Flit_ID=205 PacketId=84 Id=0 Type=3 Size=1 Vnet=1 VC=7 Src NI=0 Src Router=0 Dest NI=28 Dest Router=12 Set Time=542500 Width=16 ]



[flit:: Flit_ID=206 PacketId=85 Id=0 Type=3 Size=1 Vnet=0 VC=2 Src NI=7 Src Router=7 Dest NI=31 Dest Router=15 Set Time=544500 Width=16 ]



[flit:: Flit_ID=207 PacketId=86 Id=0 Type=3 Size=1 Vnet=1 VC=6 Src NI=4 Src Router=4 Dest NI=24 Dest Router=8 Set Time=549500 Width=16 ]



[flit:: Flit_ID=208 PacketId=87 Id=0 Type=0 Size=5 Vnet=2 VC=9 Src NI=2 Src Router=2 Dest NI=30 Dest Router=14 Set Time=549500 Width=16 ]



[flit:: Flit_ID=209 PacketId=87 Id=1 Type=1 Size=5 Vnet=2 VC=9 Src NI=2 Src Router=2 Dest NI=30 Dest Router=14 Set Time=549500 Width=16 ]



[flit:: Flit_ID=210 PacketId=87 Id=2 Type=1 Size=5 Vnet=2 VC=9 Src NI=2 Src Router=2 Dest NI=30 Dest Router=14 Set Time=549500 Width=16 ]



[flit:: Flit_ID=211 PacketId=87 Id=3 Type=1 Size=5 Vnet=2 VC=9 Src NI=2 Src Router=2 Dest NI=30 Dest Router=14 Set Time=549500 Width=16 ]



[flit:: Flit_ID=212 PacketId=87 Id=4 Type=2 Size=5 Vnet=2 VC=9 Src NI=2 Src Router=2 Dest NI=30 Dest Router=14 Set Time=549500 Width=16 ]



[flit:: Flit_ID=213 PacketId=88 Id=0 Type=3 Size=1 Vnet=0 VC=0 Src NI=11 Src Router=11 Dest NI=20 Dest Router=4 Set Time=550500 Width=16 ]



[flit:: Flit_ID=214 PacketId=89 Id=0 Type=3 Size=1 Vnet=0 VC=0 Src NI=8 Src Router=8 Dest NI=25 Dest Router=9 Set Time=553500 Width=16 ]



[flit:: Flit_ID=215 PacketId=90 Id=0 Type=0 Size=5 Vnet=2 VC=8 Src NI=12 Src Router=12 Dest NI=16 Dest Router=0 Set Time=568500 Width=16 ]



[flit:: Flit_ID=216 PacketId=90 Id=1 Type=1 Size=5 Vnet=2 VC=8 Src NI=12 Src Router=12 Dest NI=16 Dest Router=0 Set Time=568500 Width=16 ]



[flit:: Flit_ID=217 PacketId=90 Id=2 Type=1 Size=5 Vnet=2 VC=8 Src NI=12 Src Router=12 Dest NI=16 Dest Router=0 Set Time=568500 Width=16 ]



[flit:: Flit_ID=218 PacketId=90 Id=3 Type=1 Size=5 Vnet=2 VC=8 Src NI=12 Src Router=12 Dest NI=16 Dest Router=0 Set Time=568500 Width=16 ]



[flit:: Flit_ID=219 PacketId=90 Id=4 Type=2 Size=5 Vnet=2 VC=8 Src NI=12 Src Router=12 Dest NI=16 Dest Router=0 Set Time=568500 Width=16 ]



[flit:: Flit_ID=220 PacketId=91 Id=0 Type=0 Size=5 Vnet=2 VC=8 Src NI=5 Src Router=5 Dest NI=25 Dest Router=9 Set Time=579500 Width=16 ]



[flit:: Flit_ID=221 PacketId=91 Id=1 Type=1 Size=5 Vnet=2 VC=8 Src NI=5 Src Router=5 Dest NI=25 Dest Router=9 Set Time=579500 Width=16 ]



[flit:: Flit_ID=222 PacketId=91 Id=2 Type=1 Size=5 Vnet=2 VC=8 Src NI=5 Src Router=5 Dest NI=25 Dest Router=9 Set Time=579500 Width=16 ]



[flit:: Flit_ID=223 PacketId=91 Id=3 Type=1 Size=5 Vnet=2 VC=8 Src NI=5 Src Router=5 Dest NI=25 Dest Router=9 Set Time=579500 Width=16 ]



[flit:: Flit_ID=224 PacketId=91 Id=4 Type=2 Size=5 Vnet=2 VC=8 Src NI=5 Src Router=5 Dest NI=25 Dest Router=9 Set Time=579500 Width=16 ]


 In router 5 


[flit:: Flit_ID=225 PacketId=92 Id=0 Type=3 Size=1 Vnet=0 VC=2 Src NI=1 Src Router=1 Dest NI=24 Dest Router=8 Set Time=602500 Width=16 ]



[flit:: Flit_ID=226 PacketId=93 Id=0 Type=0 Size=5 Vnet=2 VC=11 Src NI=15 Src Router=15 Dest NI=30 Dest Router=14 Set Time=610500 Width=16 ]



[flit:: Flit_ID=227 PacketId=93 Id=1 Type=1 Size=5 Vnet=2 VC=11 Src NI=15 Src Router=15 Dest NI=30 Dest Router=14 Set Time=610500 Width=16 ]



[flit:: Flit_ID=228 PacketId=93 Id=2 Type=1 Size=5 Vnet=2 VC=11 Src NI=15 Src Router=15 Dest NI=30 Dest Router=14 Set Time=610500 Width=16 ]



[flit:: Flit_ID=229 PacketId=93 Id=3 Type=1 Size=5 Vnet=2 VC=11 Src NI=15 Src Router=15 Dest NI=30 Dest Router=14 Set Time=610500 Width=16 ]



[flit:: Flit_ID=230 PacketId=93 Id=4 Type=2 Size=5 Vnet=2 VC=11 Src NI=15 Src Router=15 Dest NI=30 Dest Router=14 Set Time=610500 Width=16 ]



[flit:: Flit_ID=231 PacketId=94 Id=0 Type=0 Size=5 Vnet=2 VC=8 Src NI=15 Src Router=15 Dest NI=21 Dest Router=5 Set Time=633500 Width=16 ]



[flit:: Flit_ID=232 PacketId=94 Id=1 Type=1 Size=5 Vnet=2 VC=8 Src NI=15 Src Router=15 Dest NI=21 Dest Router=5 Set Time=633500 Width=16 ]



[flit:: Flit_ID=233 PacketId=94 Id=2 Type=1 Size=5 Vnet=2 VC=8 Src NI=15 Src Router=15 Dest NI=21 Dest Router=5 Set Time=633500 Width=16 ]



[flit:: Flit_ID=234 PacketId=94 Id=3 Type=1 Size=5 Vnet=2 VC=8 Src NI=15 Src Router=15 Dest NI=21 Dest Router=5 Set Time=633500 Width=16 ]



[flit:: Flit_ID=235 PacketId=94 Id=4 Type=2 Size=5 Vnet=2 VC=8 Src NI=15 Src Router=15 Dest NI=21 Dest Router=5 Set Time=633500 Width=16 ]


 In router 5 


[flit:: Flit_ID=236 PacketId=95 Id=0 Type=0 Size=5 Vnet=2 VC=9 Src NI=12 Src Router=12 Dest NI=20 Dest Router=4 Set Time=643500 Width=16 ]



[flit:: Flit_ID=237 PacketId=95 Id=1 Type=1 Size=5 Vnet=2 VC=9 Src NI=12 Src Router=12 Dest NI=20 Dest Router=4 Set Time=643500 Width=16 ]



[flit:: Flit_ID=238 PacketId=95 Id=2 Type=1 Size=5 Vnet=2 VC=9 Src NI=12 Src Router=12 Dest NI=20 Dest Router=4 Set Time=643500 Width=16 ]



[flit:: Flit_ID=239 PacketId=95 Id=3 Type=1 Size=5 Vnet=2 VC=9 Src NI=12 Src Router=12 Dest NI=20 Dest Router=4 Set Time=643500 Width=16 ]



[flit:: Flit_ID=240 PacketId=95 Id=4 Type=2 Size=5 Vnet=2 VC=9 Src NI=12 Src Router=12 Dest NI=20 Dest Router=4 Set Time=643500 Width=16 ]



[flit:: Flit_ID=241 PacketId=96 Id=0 Type=0 Size=5 Vnet=2 VC=10 Src NI=12 Src Router=12 Dest NI=22 Dest Router=6 Set Time=645500 Width=16 ]



[flit:: Flit_ID=242 PacketId=96 Id=1 Type=1 Size=5 Vnet=2 VC=10 Src NI=12 Src Router=12 Dest NI=22 Dest Router=6 Set Time=645500 Width=16 ]



[flit:: Flit_ID=243 PacketId=96 Id=2 Type=1 Size=5 Vnet=2 VC=10 Src NI=12 Src Router=12 Dest NI=22 Dest Router=6 Set Time=645500 Width=16 ]



[flit:: Flit_ID=244 PacketId=96 Id=3 Type=1 Size=5 Vnet=2 VC=10 Src NI=12 Src Router=12 Dest NI=22 Dest Router=6 Set Time=645500 Width=16 ]



[flit:: Flit_ID=245 PacketId=96 Id=4 Type=2 Size=5 Vnet=2 VC=10 Src NI=12 Src Router=12 Dest NI=22 Dest Router=6 Set Time=645500 Width=16 ]



[flit:: Flit_ID=246 PacketId=97 Id=0 Type=0 Size=5 Vnet=2 VC=10 Src NI=6 Src Router=6 Dest NI=16 Dest Router=0 Set Time=645500 Width=16 ]



[flit:: Flit_ID=247 PacketId=97 Id=1 Type=1 Size=5 Vnet=2 VC=10 Src NI=6 Src Router=6 Dest NI=16 Dest Router=0 Set Time=645500 Width=16 ]



[flit:: Flit_ID=248 PacketId=97 Id=2 Type=1 Size=5 Vnet=2 VC=10 Src NI=6 Src Router=6 Dest NI=16 Dest Router=0 Set Time=645500 Width=16 ]



[flit:: Flit_ID=249 PacketId=97 Id=3 Type=1 Size=5 Vnet=2 VC=10 Src NI=6 Src Router=6 Dest NI=16 Dest Router=0 Set Time=645500 Width=16 ]



[flit:: Flit_ID=250 PacketId=97 Id=4 Type=2 Size=5 Vnet=2 VC=10 Src NI=6 Src Router=6 Dest NI=16 Dest Router=0 Set Time=645500 Width=16 ]


 In router 5 

Changing destination to : 4 from : 0 for flit : 246 for packet : 0 

here in modified routing algorithm


Router id : 5
flit_id : 246
Input port direction: East
my x : 1
my y : 1
destination_id : 4
destination x : 0
destination y : 1
x hops : 1
y hops : 0
x direction : 0
y direction : 1
Going to West

 Rerouted packet : 0 reached : 0 from : 4 


[flit:: Flit_ID=251 PacketId=98 Id=0 Type=3 Size=1 Vnet=1 VC=5 Src NI=9 Src Router=9 Dest NI=29 Dest Router=13 Set Time=653500 Width=16 ]



[flit:: Flit_ID=252 PacketId=99 Id=0 Type=3 Size=1 Vnet=1 VC=4 Src NI=5 Src Router=5 Dest NI=23 Dest Router=7 Set Time=665500 Width=16 ]



[flit:: Flit_ID=253 PacketId=100 Id=0 Type=3 Size=1 Vnet=1 VC=5 Src NI=14 Src Router=14 Dest NI=21 Dest Router=5 Set Time=666500 Width=16 ]



[flit:: Flit_ID=254 PacketId=101 Id=0 Type=3 Size=1 Vnet=0 VC=3 Src NI=7 Src Router=7 Dest NI=16 Dest Router=0 Set Time=673500 Width=16 ]



[flit:: Flit_ID=255 PacketId=102 Id=0 Type=0 Size=5 Vnet=2 VC=11 Src NI=6 Src Router=6 Dest NI=16 Dest Router=0 Set Time=694500 Width=16 ]



[flit:: Flit_ID=256 PacketId=102 Id=1 Type=1 Size=5 Vnet=2 VC=11 Src NI=6 Src Router=6 Dest NI=16 Dest Router=0 Set Time=694500 Width=16 ]



[flit:: Flit_ID=257 PacketId=102 Id=2 Type=1 Size=5 Vnet=2 VC=11 Src NI=6 Src Router=6 Dest NI=16 Dest Router=0 Set Time=694500 Width=16 ]



[flit:: Flit_ID=258 PacketId=102 Id=3 Type=1 Size=5 Vnet=2 VC=11 Src NI=6 Src Router=6 Dest NI=16 Dest Router=0 Set Time=694500 Width=16 ]



[flit:: Flit_ID=259 PacketId=102 Id=4 Type=2 Size=5 Vnet=2 VC=11 Src NI=6 Src Router=6 Dest NI=16 Dest Router=0 Set Time=694500 Width=16 ]



[flit:: Flit_ID=260 PacketId=103 Id=0 Type=3 Size=1 Vnet=0 VC=3 Src NI=13 Src Router=13 Dest NI=28 Dest Router=12 Set Time=695500 Width=16 ]



[flit:: Flit_ID=261 PacketId=104 Id=0 Type=3 Size=1 Vnet=1 VC=5 Src NI=5 Src Router=5 Dest NI=23 Dest Router=7 Set Time=696500 Width=16 ]


 In router 5 


[flit:: Flit_ID=262 PacketId=105 Id=0 Type=3 Size=1 Vnet=0 VC=1 Src NI=11 Src Router=11 Dest NI=29 Dest Router=13 Set Time=711500 Width=16 ]



[flit:: Flit_ID=263 PacketId=106 Id=0 Type=0 Size=5 Vnet=2 VC=11 Src NI=12 Src Router=12 Dest NI=28 Dest Router=12 Set Time=717500 Width=16 ]



[flit:: Flit_ID=264 PacketId=106 Id=1 Type=1 Size=5 Vnet=2 VC=11 Src NI=12 Src Router=12 Dest NI=28 Dest Router=12 Set Time=717500 Width=16 ]



[flit:: Flit_ID=265 PacketId=106 Id=2 Type=1 Size=5 Vnet=2 VC=11 Src NI=12 Src Router=12 Dest NI=28 Dest Router=12 Set Time=717500 Width=16 ]



[flit:: Flit_ID=266 PacketId=106 Id=3 Type=1 Size=5 Vnet=2 VC=11 Src NI=12 Src Router=12 Dest NI=28 Dest Router=12 Set Time=717500 Width=16 ]



[flit:: Flit_ID=267 PacketId=106 Id=4 Type=2 Size=5 Vnet=2 VC=11 Src NI=12 Src Router=12 Dest NI=28 Dest Router=12 Set Time=717500 Width=16 ]



[flit:: Flit_ID=268 PacketId=107 Id=0 Type=3 Size=1 Vnet=0 VC=0 Src NI=13 Src Router=13 Dest NI=22 Dest Router=6 Set Time=733500 Width=16 ]



[flit:: Flit_ID=269 PacketId=108 Id=0 Type=0 Size=5 Vnet=2 VC=8 Src NI=6 Src Router=6 Dest NI=21 Dest Router=5 Set Time=733500 Width=16 ]



[flit:: Flit_ID=270 PacketId=108 Id=1 Type=1 Size=5 Vnet=2 VC=8 Src NI=6 Src Router=6 Dest NI=21 Dest Router=5 Set Time=733500 Width=16 ]



[flit:: Flit_ID=271 PacketId=108 Id=2 Type=1 Size=5 Vnet=2 VC=8 Src NI=6 Src Router=6 Dest NI=21 Dest Router=5 Set Time=733500 Width=16 ]



[flit:: Flit_ID=272 PacketId=108 Id=3 Type=1 Size=5 Vnet=2 VC=8 Src NI=6 Src Router=6 Dest NI=21 Dest Router=5 Set Time=733500 Width=16 ]



[flit:: Flit_ID=273 PacketId=108 Id=4 Type=2 Size=5 Vnet=2 VC=8 Src NI=6 Src Router=6 Dest NI=21 Dest Router=5 Set Time=733500 Width=16 ]


 In router 5 


[flit:: Flit_ID=274 PacketId=109 Id=0 Type=3 Size=1 Vnet=0 VC=1 Src NI=8 Src Router=8 Dest NI=21 Dest Router=5 Set Time=738500 Width=16 ]



[flit:: Flit_ID=275 PacketId=110 Id=0 Type=3 Size=1 Vnet=0 VC=1 Src NI=13 Src Router=13 Dest NI=23 Dest Router=7 Set Time=757500 Width=16 ]



[flit:: Flit_ID=276 PacketId=111 Id=0 Type=3 Size=1 Vnet=0 VC=1 Src NI=3 Src Router=3 Dest NI=23 Dest Router=7 Set Time=773500 Width=16 ]



[flit:: Flit_ID=277 PacketId=112 Id=0 Type=3 Size=1 Vnet=0 VC=1 Src NI=4 Src Router=4 Dest NI=31 Dest Router=15 Set Time=775500 Width=16 ]



[flit:: Flit_ID=278 PacketId=113 Id=0 Type=0 Size=5 Vnet=2 VC=11 Src NI=4 Src Router=4 Dest NI=29 Dest Router=13 Set Time=780500 Width=16 ]



[flit:: Flit_ID=279 PacketId=113 Id=1 Type=1 Size=5 Vnet=2 VC=11 Src NI=4 Src Router=4 Dest NI=29 Dest Router=13 Set Time=780500 Width=16 ]



[flit:: Flit_ID=280 PacketId=113 Id=2 Type=1 Size=5 Vnet=2 VC=11 Src NI=4 Src Router=4 Dest NI=29 Dest Router=13 Set Time=780500 Width=16 ]



[flit:: Flit_ID=281 PacketId=113 Id=3 Type=1 Size=5 Vnet=2 VC=11 Src NI=4 Src Router=4 Dest NI=29 Dest Router=13 Set Time=780500 Width=16 ]



[flit:: Flit_ID=282 PacketId=113 Id=4 Type=2 Size=5 Vnet=2 VC=11 Src NI=4 Src Router=4 Dest NI=29 Dest Router=13 Set Time=780500 Width=16 ]


 In router 5 


[flit:: Flit_ID=283 PacketId=114 Id=0 Type=3 Size=1 Vnet=1 VC=6 Src NI=15 Src Router=15 Dest NI=26 Dest Router=10 Set Time=784500 Width=16 ]



[flit:: Flit_ID=284 PacketId=115 Id=0 Type=0 Size=5 Vnet=2 VC=9 Src NI=5 Src Router=5 Dest NI=22 Dest Router=6 Set Time=785500 Width=16 ]



[flit:: Flit_ID=285 PacketId=115 Id=1 Type=1 Size=5 Vnet=2 VC=9 Src NI=5 Src Router=5 Dest NI=22 Dest Router=6 Set Time=785500 Width=16 ]



[flit:: Flit_ID=286 PacketId=115 Id=2 Type=1 Size=5 Vnet=2 VC=9 Src NI=5 Src Router=5 Dest NI=22 Dest Router=6 Set Time=785500 Width=16 ]



[flit:: Flit_ID=287 PacketId=115 Id=3 Type=1 Size=5 Vnet=2 VC=9 Src NI=5 Src Router=5 Dest NI=22 Dest Router=6 Set Time=785500 Width=16 ]



[flit:: Flit_ID=288 PacketId=115 Id=4 Type=2 Size=5 Vnet=2 VC=9 Src NI=5 Src Router=5 Dest NI=22 Dest Router=6 Set Time=785500 Width=16 ]


 In router 5 


[flit:: Flit_ID=289 PacketId=116 Id=0 Type=3 Size=1 Vnet=0 VC=2 Src NI=10 Src Router=10 Dest NI=28 Dest Router=12 Set Time=791500 Width=16 ]



[flit:: Flit_ID=290 PacketId=117 Id=0 Type=3 Size=1 Vnet=0 VC=2 Src NI=0 Src Router=0 Dest NI=23 Dest Router=7 Set Time=796500 Width=16 ]



[flit:: Flit_ID=291 PacketId=118 Id=0 Type=0 Size=5 Vnet=2 VC=10 Src NI=5 Src Router=5 Dest NI=28 Dest Router=12 Set Time=816500 Width=16 ]



[flit:: Flit_ID=292 PacketId=118 Id=1 Type=1 Size=5 Vnet=2 VC=10 Src NI=5 Src Router=5 Dest NI=28 Dest Router=12 Set Time=816500 Width=16 ]



[flit:: Flit_ID=293 PacketId=118 Id=2 Type=1 Size=5 Vnet=2 VC=10 Src NI=5 Src Router=5 Dest NI=28 Dest Router=12 Set Time=816500 Width=16 ]



[flit:: Flit_ID=294 PacketId=118 Id=3 Type=1 Size=5 Vnet=2 VC=10 Src NI=5 Src Router=5 Dest NI=28 Dest Router=12 Set Time=816500 Width=16 ]



[flit:: Flit_ID=295 PacketId=118 Id=4 Type=2 Size=5 Vnet=2 VC=10 Src NI=5 Src Router=5 Dest NI=28 Dest Router=12 Set Time=816500 Width=16 ]



[flit:: Flit_ID=296 PacketId=119 Id=0 Type=3 Size=1 Vnet=0 VC=2 Src NI=15 Src Router=15 Dest NI=28 Dest Router=12 Set Time=816500 Width=16 ]


 In router 5 


[flit:: Flit_ID=297 PacketId=120 Id=0 Type=0 Size=5 Vnet=2 VC=10 Src NI=9 Src Router=9 Dest NI=19 Dest Router=3 Set Time=817500 Width=16 ]



[flit:: Flit_ID=298 PacketId=120 Id=1 Type=1 Size=5 Vnet=2 VC=10 Src NI=9 Src Router=9 Dest NI=19 Dest Router=3 Set Time=817500 Width=16 ]



[flit:: Flit_ID=299 PacketId=120 Id=2 Type=1 Size=5 Vnet=2 VC=10 Src NI=9 Src Router=9 Dest NI=19 Dest Router=3 Set Time=817500 Width=16 ]



[flit:: Flit_ID=300 PacketId=120 Id=3 Type=1 Size=5 Vnet=2 VC=10 Src NI=9 Src Router=9 Dest NI=19 Dest Router=3 Set Time=817500 Width=16 ]



[flit:: Flit_ID=301 PacketId=120 Id=4 Type=2 Size=5 Vnet=2 VC=10 Src NI=9 Src Router=9 Dest NI=19 Dest Router=3 Set Time=817500 Width=16 ]



[flit:: Flit_ID=302 PacketId=121 Id=0 Type=0 Size=5 Vnet=2 VC=11 Src NI=7 Src Router=7 Dest NI=31 Dest Router=15 Set Time=823500 Width=16 ]



[flit:: Flit_ID=303 PacketId=121 Id=1 Type=1 Size=5 Vnet=2 VC=11 Src NI=7 Src Router=7 Dest NI=31 Dest Router=15 Set Time=823500 Width=16 ]



[flit:: Flit_ID=304 PacketId=121 Id=2 Type=1 Size=5 Vnet=2 VC=11 Src NI=7 Src Router=7 Dest NI=31 Dest Router=15 Set Time=823500 Width=16 ]



[flit:: Flit_ID=305 PacketId=121 Id=3 Type=1 Size=5 Vnet=2 VC=11 Src NI=7 Src Router=7 Dest NI=31 Dest Router=15 Set Time=823500 Width=16 ]



[flit:: Flit_ID=306 PacketId=121 Id=4 Type=2 Size=5 Vnet=2 VC=11 Src NI=7 Src Router=7 Dest NI=31 Dest Router=15 Set Time=823500 Width=16 ]



[flit:: Flit_ID=307 PacketId=122 Id=0 Type=3 Size=1 Vnet=0 VC=2 Src NI=11 Src Router=11 Dest NI=21 Dest Router=5 Set Time=825500 Width=16 ]



[flit:: Flit_ID=308 PacketId=123 Id=0 Type=3 Size=1 Vnet=1 VC=7 Src NI=15 Src Router=15 Dest NI=31 Dest Router=15 Set Time=828500 Width=16 ]



[flit:: Flit_ID=309 PacketId=124 Id=0 Type=0 Size=5 Vnet=2 VC=10 Src NI=8 Src Router=8 Dest NI=19 Dest Router=3 Set Time=831500 Width=16 ]



[flit:: Flit_ID=310 PacketId=124 Id=1 Type=1 Size=5 Vnet=2 VC=10 Src NI=8 Src Router=8 Dest NI=19 Dest Router=3 Set Time=831500 Width=16 ]



[flit:: Flit_ID=311 PacketId=124 Id=2 Type=1 Size=5 Vnet=2 VC=10 Src NI=8 Src Router=8 Dest NI=19 Dest Router=3 Set Time=831500 Width=16 ]



[flit:: Flit_ID=312 PacketId=124 Id=3 Type=1 Size=5 Vnet=2 VC=10 Src NI=8 Src Router=8 Dest NI=19 Dest Router=3 Set Time=831500 Width=16 ]



[flit:: Flit_ID=313 PacketId=124 Id=4 Type=2 Size=5 Vnet=2 VC=10 Src NI=8 Src Router=8 Dest NI=19 Dest Router=3 Set Time=831500 Width=16 ]



[flit:: Flit_ID=314 PacketId=125 Id=0 Type=3 Size=1 Vnet=1 VC=6 Src NI=5 Src Router=5 Dest NI=31 Dest Router=15 Set Time=833500 Width=16 ]



[flit:: Flit_ID=315 PacketId=126 Id=0 Type=3 Size=1 Vnet=1 VC=5 Src NI=2 Src Router=2 Dest NI=26 Dest Router=10 Set Time=839500 Width=16 ]



[flit:: Flit_ID=316 PacketId=127 Id=0 Type=0 Size=5 Vnet=2 VC=11 Src NI=1 Src Router=1 Dest NI=19 Dest Router=3 Set Time=839500 Width=16 ]



[flit:: Flit_ID=317 PacketId=127 Id=1 Type=1 Size=5 Vnet=2 VC=11 Src NI=1 Src Router=1 Dest NI=19 Dest Router=3 Set Time=839500 Width=16 ]



[flit:: Flit_ID=318 PacketId=127 Id=2 Type=1 Size=5 Vnet=2 VC=11 Src NI=1 Src Router=1 Dest NI=19 Dest Router=3 Set Time=839500 Width=16 ]



[flit:: Flit_ID=319 PacketId=127 Id=3 Type=1 Size=5 Vnet=2 VC=11 Src NI=1 Src Router=1 Dest NI=19 Dest Router=3 Set Time=839500 Width=16 ]



[flit:: Flit_ID=320 PacketId=127 Id=4 Type=2 Size=5 Vnet=2 VC=11 Src NI=1 Src Router=1 Dest NI=19 Dest Router=3 Set Time=839500 Width=16 ]



[flit:: Flit_ID=321 PacketId=128 Id=0 Type=3 Size=1 Vnet=0 VC=2 Src NI=2 Src Router=2 Dest NI=17 Dest Router=1 Set Time=843500 Width=16 ]



[flit:: Flit_ID=322 PacketId=129 Id=0 Type=3 Size=1 Vnet=0 VC=0 Src NI=12 Src Router=12 Dest NI=25 Dest Router=9 Set Time=872500 Width=16 ]



[flit:: Flit_ID=323 PacketId=130 Id=0 Type=3 Size=1 Vnet=0 VC=1 Src NI=5 Src Router=5 Dest NI=26 Dest Router=10 Set Time=884500 Width=16 ]



[flit:: Flit_ID=324 PacketId=131 Id=0 Type=0 Size=5 Vnet=2 VC=9 Src NI=6 Src Router=6 Dest NI=25 Dest Router=9 Set Time=889500 Width=16 ]



[flit:: Flit_ID=325 PacketId=131 Id=1 Type=1 Size=5 Vnet=2 VC=9 Src NI=6 Src Router=6 Dest NI=25 Dest Router=9 Set Time=889500 Width=16 ]



[flit:: Flit_ID=326 PacketId=131 Id=2 Type=1 Size=5 Vnet=2 VC=9 Src NI=6 Src Router=6 Dest NI=25 Dest Router=9 Set Time=889500 Width=16 ]



[flit:: Flit_ID=327 PacketId=131 Id=3 Type=1 Size=5 Vnet=2 VC=9 Src NI=6 Src Router=6 Dest NI=25 Dest Router=9 Set Time=889500 Width=16 ]



[flit:: Flit_ID=328 PacketId=131 Id=4 Type=2 Size=5 Vnet=2 VC=9 Src NI=6 Src Router=6 Dest NI=25 Dest Router=9 Set Time=889500 Width=16 ]


 In router 5 

Changing destination to : 12 from : 9 for flit : 324 for packet : 0 

here in modified routing algorithm


Router id : 5
flit_id : 324
Input port direction: East
my x : 1
my y : 1
destination_id : 12
destination x : 0
destination y : 3
x hops : 1
y hops : 2
x direction : 0
y direction : 1
Going to West

here in modified routing algorithm


Router id : 4
flit_id : 324
Input port direction: East
my x : 0
my y : 1
destination_id : 12
destination x : 0
destination y : 3
x hops : 0
y hops : 2
x direction : 1
y direction : 1
Going to North

here in modified routing algorithm


Router id : 8
flit_id : 324
Input port direction: South
my x : 0
my y : 2
destination_id : 12
destination x : 0
destination y : 3
x hops : 0
y hops : 1
x direction : 1
y direction : 1
Going to North

 Rerouted packet : 0 reached : 9 from : 12 


[flit:: Flit_ID=329 PacketId=132 Id=0 Type=3 Size=1 Vnet=0 VC=2 Src NI=8 Src Router=8 Dest NI=31 Dest Router=15 Set Time=914500 Width=16 ]



[flit:: Flit_ID=330 PacketId=133 Id=0 Type=3 Size=1 Vnet=0 VC=1 Src NI=14 Src Router=14 Dest NI=18 Dest Router=2 Set Time=918500 Width=16 ]



[flit:: Flit_ID=331 PacketId=134 Id=0 Type=3 Size=1 Vnet=1 VC=5 Src NI=6 Src Router=6 Dest NI=21 Dest Router=5 Set Time=929500 Width=16 ]



[flit:: Flit_ID=332 PacketId=135 Id=0 Type=3 Size=1 Vnet=1 VC=6 Src NI=6 Src Router=6 Dest NI=26 Dest Router=10 Set Time=930500 Width=16 ]



[flit:: Flit_ID=333 PacketId=136 Id=0 Type=3 Size=1 Vnet=0 VC=3 Src NI=2 Src Router=2 Dest NI=30 Dest Router=14 Set Time=946500 Width=16 ]



[flit:: Flit_ID=334 PacketId=137 Id=0 Type=3 Size=1 Vnet=1 VC=6 Src NI=1 Src Router=1 Dest NI=21 Dest Router=5 Set Time=948500 Width=16 ]



[flit:: Flit_ID=335 PacketId=138 Id=0 Type=0 Size=5 Vnet=2 VC=8 Src NI=7 Src Router=7 Dest NI=26 Dest Router=10 Set Time=954500 Width=16 ]



[flit:: Flit_ID=336 PacketId=138 Id=1 Type=1 Size=5 Vnet=2 VC=8 Src NI=7 Src Router=7 Dest NI=26 Dest Router=10 Set Time=954500 Width=16 ]



[flit:: Flit_ID=337 PacketId=138 Id=2 Type=1 Size=5 Vnet=2 VC=8 Src NI=7 Src Router=7 Dest NI=26 Dest Router=10 Set Time=954500 Width=16 ]



[flit:: Flit_ID=338 PacketId=138 Id=3 Type=1 Size=5 Vnet=2 VC=8 Src NI=7 Src Router=7 Dest NI=26 Dest Router=10 Set Time=954500 Width=16 ]



[flit:: Flit_ID=339 PacketId=138 Id=4 Type=2 Size=5 Vnet=2 VC=8 Src NI=7 Src Router=7 Dest NI=26 Dest Router=10 Set Time=954500 Width=16 ]



[flit:: Flit_ID=340 PacketId=139 Id=0 Type=3 Size=1 Vnet=1 VC=7 Src NI=5 Src Router=5 Dest NI=20 Dest Router=4 Set Time=956500 Width=16 ]



[flit:: Flit_ID=341 PacketId=140 Id=0 Type=0 Size=5 Vnet=2 VC=11 Src NI=3 Src Router=3 Dest NI=29 Dest Router=13 Set Time=958500 Width=16 ]



[flit:: Flit_ID=342 PacketId=140 Id=1 Type=1 Size=5 Vnet=2 VC=11 Src NI=3 Src Router=3 Dest NI=29 Dest Router=13 Set Time=958500 Width=16 ]



[flit:: Flit_ID=343 PacketId=140 Id=2 Type=1 Size=5 Vnet=2 VC=11 Src NI=3 Src Router=3 Dest NI=29 Dest Router=13 Set Time=958500 Width=16 ]



[flit:: Flit_ID=344 PacketId=140 Id=3 Type=1 Size=5 Vnet=2 VC=11 Src NI=3 Src Router=3 Dest NI=29 Dest Router=13 Set Time=958500 Width=16 ]



[flit:: Flit_ID=345 PacketId=140 Id=4 Type=2 Size=5 Vnet=2 VC=11 Src NI=3 Src Router=3 Dest NI=29 Dest Router=13 Set Time=958500 Width=16 ]



[flit:: Flit_ID=346 PacketId=141 Id=0 Type=3 Size=1 Vnet=0 VC=0 Src NI=9 Src Router=9 Dest NI=24 Dest Router=8 Set Time=963500 Width=16 ]


 In router 5 

Changing destination to : 15 from : 13 for flit : 341 for packet : 0 

here in modified routing algorithm


Router id : 5
flit_id : 341
Input port direction: South
my x : 1
my y : 1
destination_id : 15
destination x : 3
destination y : 3
x hops : 2
y hops : 2
x direction : 1
y direction : 1
Going to East

here in modified routing algorithm


Router id : 6
flit_id : 341
Input port direction: West
my x : 2
my y : 1
destination_id : 15
destination x : 3
destination y : 3
x hops : 1
y hops : 2
x direction : 1
y direction : 1
Going to East

here in modified routing algorithm


Router id : 7
flit_id : 341
Input port direction: West
my x : 3
my y : 1
destination_id : 15
destination x : 3
destination y : 3
x hops : 0
y hops : 2
x direction : 1
y direction : 1
Going to North

here in modified routing algorithm


Router id : 11
flit_id : 341
Input port direction: South
my x : 3
my y : 2
destination_id : 15
destination x : 3
destination y : 3
x hops : 0
y hops : 1
x direction : 1
y direction : 1
Going to North

 Rerouted packet : 0 reached : 13 from : 15 


[flit:: Flit_ID=347 PacketId=142 Id=0 Type=0 Size=5 Vnet=2 VC=8 Src NI=1 Src Router=1 Dest NI=21 Dest Router=5 Set Time=973500 Width=16 ]



[flit:: Flit_ID=348 PacketId=142 Id=1 Type=1 Size=5 Vnet=2 VC=8 Src NI=1 Src Router=1 Dest NI=21 Dest Router=5 Set Time=973500 Width=16 ]



[flit:: Flit_ID=349 PacketId=142 Id=2 Type=1 Size=5 Vnet=2 VC=8 Src NI=1 Src Router=1 Dest NI=21 Dest Router=5 Set Time=973500 Width=16 ]



[flit:: Flit_ID=350 PacketId=142 Id=3 Type=1 Size=5 Vnet=2 VC=8 Src NI=1 Src Router=1 Dest NI=21 Dest Router=5 Set Time=973500 Width=16 ]



[flit:: Flit_ID=351 PacketId=142 Id=4 Type=2 Size=5 Vnet=2 VC=8 Src NI=1 Src Router=1 Dest NI=21 Dest Router=5 Set Time=973500 Width=16 ]


 In router 5 


[flit:: Flit_ID=352 PacketId=143 Id=0 Type=3 Size=1 Vnet=0 VC=3 Src NI=1 Src Router=1 Dest NI=31 Dest Router=15 Set Time=978500 Width=16 ]



[flit:: Flit_ID=353 PacketId=144 Id=0 Type=3 Size=1 Vnet=1 VC=6 Src NI=10 Src Router=10 Dest NI=19 Dest Router=3 Set Time=980500 Width=16 ]



[flit:: Flit_ID=354 PacketId=145 Id=0 Type=0 Size=5 Vnet=2 VC=10 Src NI=14 Src Router=14 Dest NI=19 Dest Router=3 Set Time=989500 Width=16 ]



[flit:: Flit_ID=355 PacketId=145 Id=1 Type=1 Size=5 Vnet=2 VC=10 Src NI=14 Src Router=14 Dest NI=19 Dest Router=3 Set Time=989500 Width=16 ]



[flit:: Flit_ID=356 PacketId=145 Id=2 Type=1 Size=5 Vnet=2 VC=10 Src NI=14 Src Router=14 Dest NI=19 Dest Router=3 Set Time=989500 Width=16 ]



[flit:: Flit_ID=357 PacketId=145 Id=3 Type=1 Size=5 Vnet=2 VC=10 Src NI=14 Src Router=14 Dest NI=19 Dest Router=3 Set Time=989500 Width=16 ]



[flit:: Flit_ID=358 PacketId=145 Id=4 Type=2 Size=5 Vnet=2 VC=10 Src NI=14 Src Router=14 Dest NI=19 Dest Router=3 Set Time=989500 Width=16 ]



[flit:: Flit_ID=359 PacketId=146 Id=0 Type=3 Size=1 Vnet=0 VC=2 Src NI=14 Src Router=14 Dest NI=25 Dest Router=9 Set Time=1003500 Width=16 ]



[flit:: Flit_ID=360 PacketId=147 Id=0 Type=0 Size=5 Vnet=2 VC=10 Src NI=13 Src Router=13 Dest NI=26 Dest Router=10 Set Time=1011500 Width=16 ]



[flit:: Flit_ID=361 PacketId=147 Id=1 Type=1 Size=5 Vnet=2 VC=10 Src NI=13 Src Router=13 Dest NI=26 Dest Router=10 Set Time=1011500 Width=16 ]



[flit:: Flit_ID=362 PacketId=147 Id=2 Type=1 Size=5 Vnet=2 VC=10 Src NI=13 Src Router=13 Dest NI=26 Dest Router=10 Set Time=1011500 Width=16 ]



[flit:: Flit_ID=363 PacketId=147 Id=3 Type=1 Size=5 Vnet=2 VC=10 Src NI=13 Src Router=13 Dest NI=26 Dest Router=10 Set Time=1011500 Width=16 ]



[flit:: Flit_ID=364 PacketId=147 Id=4 Type=2 Size=5 Vnet=2 VC=10 Src NI=13 Src Router=13 Dest NI=26 Dest Router=10 Set Time=1011500 Width=16 ]



[flit:: Flit_ID=365 PacketId=148 Id=0 Type=3 Size=1 Vnet=1 VC=7 Src NI=8 Src Router=8 Dest NI=19 Dest Router=3 Set Time=1011500 Width=16 ]



[flit:: Flit_ID=366 PacketId=149 Id=0 Type=3 Size=1 Vnet=0 VC=2 Src NI=13 Src Router=13 Dest NI=26 Dest Router=10 Set Time=1015500 Width=16 ]



[flit:: Flit_ID=367 PacketId=150 Id=0 Type=0 Size=5 Vnet=2 VC=11 Src NI=14 Src Router=14 Dest NI=19 Dest Router=3 Set Time=1032500 Width=16 ]



[flit:: Flit_ID=368 PacketId=150 Id=1 Type=1 Size=5 Vnet=2 VC=11 Src NI=14 Src Router=14 Dest NI=19 Dest Router=3 Set Time=1032500 Width=16 ]



[flit:: Flit_ID=369 PacketId=150 Id=2 Type=1 Size=5 Vnet=2 VC=11 Src NI=14 Src Router=14 Dest NI=19 Dest Router=3 Set Time=1032500 Width=16 ]



[flit:: Flit_ID=370 PacketId=150 Id=3 Type=1 Size=5 Vnet=2 VC=11 Src NI=14 Src Router=14 Dest NI=19 Dest Router=3 Set Time=1032500 Width=16 ]



[flit:: Flit_ID=371 PacketId=150 Id=4 Type=2 Size=5 Vnet=2 VC=11 Src NI=14 Src Router=14 Dest NI=19 Dest Router=3 Set Time=1032500 Width=16 ]



[flit:: Flit_ID=372 PacketId=151 Id=0 Type=0 Size=5 Vnet=2 VC=9 Src NI=11 Src Router=11 Dest NI=23 Dest Router=7 Set Time=1034500 Width=16 ]



[flit:: Flit_ID=373 PacketId=151 Id=1 Type=1 Size=5 Vnet=2 VC=9 Src NI=11 Src Router=11 Dest NI=23 Dest Router=7 Set Time=1034500 Width=16 ]



[flit:: Flit_ID=374 PacketId=151 Id=2 Type=1 Size=5 Vnet=2 VC=9 Src NI=11 Src Router=11 Dest NI=23 Dest Router=7 Set Time=1034500 Width=16 ]



[flit:: Flit_ID=375 PacketId=151 Id=3 Type=1 Size=5 Vnet=2 VC=9 Src NI=11 Src Router=11 Dest NI=23 Dest Router=7 Set Time=1034500 Width=16 ]



[flit:: Flit_ID=376 PacketId=151 Id=4 Type=2 Size=5 Vnet=2 VC=9 Src NI=11 Src Router=11 Dest NI=23 Dest Router=7 Set Time=1034500 Width=16 ]



[flit:: Flit_ID=377 PacketId=152 Id=0 Type=3 Size=1 Vnet=0 VC=2 Src NI=3 Src Router=3 Dest NI=25 Dest Router=9 Set Time=1035500 Width=16 ]



[flit:: Flit_ID=378 PacketId=153 Id=0 Type=3 Size=1 Vnet=0 VC=1 Src NI=9 Src Router=9 Dest NI=23 Dest Router=7 Set Time=1037500 Width=16 ]



[flit:: Flit_ID=379 PacketId=154 Id=0 Type=3 Size=1 Vnet=1 VC=4 Src NI=15 Src Router=15 Dest NI=30 Dest Router=14 Set Time=1040500 Width=16 ]



[flit:: Flit_ID=380 PacketId=155 Id=0 Type=3 Size=1 Vnet=1 VC=5 Src NI=13 Src Router=13 Dest NI=16 Dest Router=0 Set Time=1043500 Width=16 ]



[flit:: Flit_ID=381 PacketId=156 Id=0 Type=3 Size=1 Vnet=1 VC=6 Src NI=13 Src Router=13 Dest NI=31 Dest Router=15 Set Time=1045500 Width=16 ]



[flit:: Flit_ID=382 PacketId=157 Id=0 Type=3 Size=1 Vnet=0 VC=0 Src NI=7 Src Router=7 Dest NI=26 Dest Router=10 Set Time=1049500 Width=16 ]



[flit:: Flit_ID=383 PacketId=158 Id=0 Type=3 Size=1 Vnet=1 VC=6 Src NI=12 Src Router=12 Dest NI=24 Dest Router=8 Set Time=1064500 Width=16 ]



[flit:: Flit_ID=384 PacketId=159 Id=0 Type=3 Size=1 Vnet=0 VC=3 Src NI=13 Src Router=13 Dest NI=19 Dest Router=3 Set Time=1068500 Width=16 ]



[flit:: Flit_ID=385 PacketId=160 Id=0 Type=0 Size=5 Vnet=2 VC=8 Src NI=3 Src Router=3 Dest NI=16 Dest Router=0 Set Time=1069500 Width=16 ]



[flit:: Flit_ID=386 PacketId=160 Id=1 Type=1 Size=5 Vnet=2 VC=8 Src NI=3 Src Router=3 Dest NI=16 Dest Router=0 Set Time=1069500 Width=16 ]



[flit:: Flit_ID=387 PacketId=160 Id=2 Type=1 Size=5 Vnet=2 VC=8 Src NI=3 Src Router=3 Dest NI=16 Dest Router=0 Set Time=1069500 Width=16 ]



[flit:: Flit_ID=388 PacketId=160 Id=3 Type=1 Size=5 Vnet=2 VC=8 Src NI=3 Src Router=3 Dest NI=16 Dest Router=0 Set Time=1069500 Width=16 ]



[flit:: Flit_ID=389 PacketId=160 Id=4 Type=2 Size=5 Vnet=2 VC=8 Src NI=3 Src Router=3 Dest NI=16 Dest Router=0 Set Time=1069500 Width=16 ]



[flit:: Flit_ID=390 PacketId=161 Id=0 Type=3 Size=1 Vnet=1 VC=6 Src NI=2 Src Router=2 Dest NI=30 Dest Router=14 Set Time=1073500 Width=16 ]



[flit:: Flit_ID=391 PacketId=162 Id=0 Type=3 Size=1 Vnet=0 VC=0 Src NI=13 Src Router=13 Dest NI=26 Dest Router=10 Set Time=1074500 Width=16 ]



[flit:: Flit_ID=392 PacketId=163 Id=0 Type=3 Size=1 Vnet=0 VC=3 Src NI=3 Src Router=3 Dest NI=17 Dest Router=1 Set Time=1081500 Width=16 ]



[flit:: Flit_ID=393 PacketId=164 Id=0 Type=3 Size=1 Vnet=1 VC=4 Src NI=5 Src Router=5 Dest NI=29 Dest Router=13 Set Time=1085500 Width=16 ]



[flit:: Flit_ID=394 PacketId=165 Id=0 Type=3 Size=1 Vnet=1 VC=7 Src NI=10 Src Router=10 Dest NI=25 Dest Router=9 Set Time=1086500 Width=16 ]



[flit:: Flit_ID=395 PacketId=166 Id=0 Type=3 Size=1 Vnet=1 VC=5 Src NI=15 Src Router=15 Dest NI=25 Dest Router=9 Set Time=1095500 Width=16 ]



[flit:: Flit_ID=396 PacketId=167 Id=0 Type=3 Size=1 Vnet=0 VC=3 Src NI=10 Src Router=10 Dest NI=19 Dest Router=3 Set Time=1099500 Width=16 ]



[flit:: Flit_ID=397 PacketId=168 Id=0 Type=3 Size=1 Vnet=0 VC=0 Src NI=3 Src Router=3 Dest NI=18 Dest Router=2 Set Time=1106500 Width=16 ]



[flit:: Flit_ID=398 PacketId=169 Id=0 Type=3 Size=1 Vnet=0 VC=2 Src NI=9 Src Router=9 Dest NI=27 Dest Router=11 Set Time=1110500 Width=16 ]



[flit:: Flit_ID=399 PacketId=170 Id=0 Type=3 Size=1 Vnet=0 VC=2 Src NI=5 Src Router=5 Dest NI=30 Dest Router=14 Set Time=1129500 Width=16 ]



[flit:: Flit_ID=400 PacketId=171 Id=0 Type=3 Size=1 Vnet=0 VC=2 Src NI=6 Src Router=6 Dest NI=30 Dest Router=14 Set Time=1134500 Width=16 ]



[flit:: Flit_ID=401 PacketId=172 Id=0 Type=3 Size=1 Vnet=0 VC=3 Src NI=0 Src Router=0 Dest NI=23 Dest Router=7 Set Time=1136500 Width=16 ]



[flit:: Flit_ID=402 PacketId=173 Id=0 Type=0 Size=5 Vnet=2 VC=10 Src NI=6 Src Router=6 Dest NI=31 Dest Router=15 Set Time=1138500 Width=16 ]



[flit:: Flit_ID=403 PacketId=173 Id=1 Type=1 Size=5 Vnet=2 VC=10 Src NI=6 Src Router=6 Dest NI=31 Dest Router=15 Set Time=1138500 Width=16 ]



[flit:: Flit_ID=404 PacketId=173 Id=2 Type=1 Size=5 Vnet=2 VC=10 Src NI=6 Src Router=6 Dest NI=31 Dest Router=15 Set Time=1138500 Width=16 ]



[flit:: Flit_ID=405 PacketId=173 Id=3 Type=1 Size=5 Vnet=2 VC=10 Src NI=6 Src Router=6 Dest NI=31 Dest Router=15 Set Time=1138500 Width=16 ]



[flit:: Flit_ID=406 PacketId=173 Id=4 Type=2 Size=5 Vnet=2 VC=10 Src NI=6 Src Router=6 Dest NI=31 Dest Router=15 Set Time=1138500 Width=16 ]



[flit:: Flit_ID=407 PacketId=174 Id=0 Type=3 Size=1 Vnet=0 VC=1 Src NI=3 Src Router=3 Dest NI=24 Dest Router=8 Set Time=1139500 Width=16 ]



[flit:: Flit_ID=408 PacketId=175 Id=0 Type=3 Size=1 Vnet=0 VC=3 Src NI=9 Src Router=9 Dest NI=21 Dest Router=5 Set Time=1153500 Width=16 ]



[flit:: Flit_ID=409 PacketId=176 Id=0 Type=0 Size=5 Vnet=2 VC=9 Src NI=7 Src Router=7 Dest NI=24 Dest Router=8 Set Time=1162500 Width=16 ]



[flit:: Flit_ID=410 PacketId=176 Id=1 Type=1 Size=5 Vnet=2 VC=9 Src NI=7 Src Router=7 Dest NI=24 Dest Router=8 Set Time=1162500 Width=16 ]



[flit:: Flit_ID=411 PacketId=176 Id=2 Type=1 Size=5 Vnet=2 VC=9 Src NI=7 Src Router=7 Dest NI=24 Dest Router=8 Set Time=1162500 Width=16 ]



[flit:: Flit_ID=412 PacketId=176 Id=3 Type=1 Size=5 Vnet=2 VC=9 Src NI=7 Src Router=7 Dest NI=24 Dest Router=8 Set Time=1162500 Width=16 ]



[flit:: Flit_ID=413 PacketId=176 Id=4 Type=2 Size=5 Vnet=2 VC=9 Src NI=7 Src Router=7 Dest NI=24 Dest Router=8 Set Time=1162500 Width=16 ]


 In router 5 


[flit:: Flit_ID=414 PacketId=177 Id=0 Type=3 Size=1 Vnet=0 VC=3 Src NI=14 Src Router=14 Dest NI=25 Dest Router=9 Set Time=1173500 Width=16 ]



[flit:: Flit_ID=415 PacketId=178 Id=0 Type=0 Size=5 Vnet=2 VC=11 Src NI=5 Src Router=5 Dest NI=16 Dest Router=0 Set Time=1176500 Width=16 ]



[flit:: Flit_ID=416 PacketId=178 Id=1 Type=1 Size=5 Vnet=2 VC=11 Src NI=5 Src Router=5 Dest NI=16 Dest Router=0 Set Time=1176500 Width=16 ]



[flit:: Flit_ID=417 PacketId=178 Id=2 Type=1 Size=5 Vnet=2 VC=11 Src NI=5 Src Router=5 Dest NI=16 Dest Router=0 Set Time=1176500 Width=16 ]



[flit:: Flit_ID=418 PacketId=178 Id=3 Type=1 Size=5 Vnet=2 VC=11 Src NI=5 Src Router=5 Dest NI=16 Dest Router=0 Set Time=1176500 Width=16 ]



[flit:: Flit_ID=419 PacketId=178 Id=4 Type=2 Size=5 Vnet=2 VC=11 Src NI=5 Src Router=5 Dest NI=16 Dest Router=0 Set Time=1176500 Width=16 ]


 In router 5 


[flit:: Flit_ID=420 PacketId=179 Id=0 Type=3 Size=1 Vnet=1 VC=7 Src NI=2 Src Router=2 Dest NI=27 Dest Router=11 Set Time=1178500 Width=16 ]



[flit:: Flit_ID=421 PacketId=180 Id=0 Type=0 Size=5 Vnet=2 VC=9 Src NI=1 Src Router=1 Dest NI=24 Dest Router=8 Set Time=1179500 Width=16 ]



[flit:: Flit_ID=422 PacketId=180 Id=1 Type=1 Size=5 Vnet=2 VC=9 Src NI=1 Src Router=1 Dest NI=24 Dest Router=8 Set Time=1179500 Width=16 ]



[flit:: Flit_ID=423 PacketId=180 Id=2 Type=1 Size=5 Vnet=2 VC=9 Src NI=1 Src Router=1 Dest NI=24 Dest Router=8 Set Time=1179500 Width=16 ]



[flit:: Flit_ID=424 PacketId=180 Id=3 Type=1 Size=5 Vnet=2 VC=9 Src NI=1 Src Router=1 Dest NI=24 Dest Router=8 Set Time=1179500 Width=16 ]



[flit:: Flit_ID=425 PacketId=180 Id=4 Type=2 Size=5 Vnet=2 VC=9 Src NI=1 Src Router=1 Dest NI=24 Dest Router=8 Set Time=1179500 Width=16 ]



[flit:: Flit_ID=426 PacketId=181 Id=0 Type=3 Size=1 Vnet=0 VC=2 Src NI=4 Src Router=4 Dest NI=18 Dest Router=2 Set Time=1180500 Width=16 ]



[flit:: Flit_ID=427 PacketId=182 Id=0 Type=0 Size=5 Vnet=2 VC=11 Src NI=9 Src Router=9 Dest NI=19 Dest Router=3 Set Time=1180500 Width=16 ]



[flit:: Flit_ID=428 PacketId=182 Id=1 Type=1 Size=5 Vnet=2 VC=11 Src NI=9 Src Router=9 Dest NI=19 Dest Router=3 Set Time=1180500 Width=16 ]



[flit:: Flit_ID=429 PacketId=182 Id=2 Type=1 Size=5 Vnet=2 VC=11 Src NI=9 Src Router=9 Dest NI=19 Dest Router=3 Set Time=1180500 Width=16 ]



[flit:: Flit_ID=430 PacketId=182 Id=3 Type=1 Size=5 Vnet=2 VC=11 Src NI=9 Src Router=9 Dest NI=19 Dest Router=3 Set Time=1180500 Width=16 ]



[flit:: Flit_ID=431 PacketId=182 Id=4 Type=2 Size=5 Vnet=2 VC=11 Src NI=9 Src Router=9 Dest NI=19 Dest Router=3 Set Time=1180500 Width=16 ]



[flit:: Flit_ID=432 PacketId=183 Id=0 Type=0 Size=5 Vnet=2 VC=9 Src NI=10 Src Router=10 Dest NI=18 Dest Router=2 Set Time=1183500 Width=16 ]



[flit:: Flit_ID=433 PacketId=183 Id=1 Type=1 Size=5 Vnet=2 VC=9 Src NI=10 Src Router=10 Dest NI=18 Dest Router=2 Set Time=1183500 Width=16 ]



[flit:: Flit_ID=434 PacketId=183 Id=2 Type=1 Size=5 Vnet=2 VC=9 Src NI=10 Src Router=10 Dest NI=18 Dest Router=2 Set Time=1183500 Width=16 ]



[flit:: Flit_ID=435 PacketId=183 Id=3 Type=1 Size=5 Vnet=2 VC=9 Src NI=10 Src Router=10 Dest NI=18 Dest Router=2 Set Time=1183500 Width=16 ]



[flit:: Flit_ID=436 PacketId=183 Id=4 Type=2 Size=5 Vnet=2 VC=9 Src NI=10 Src Router=10 Dest NI=18 Dest Router=2 Set Time=1183500 Width=16 ]



[flit:: Flit_ID=437 PacketId=184 Id=0 Type=3 Size=1 Vnet=0 VC=1 Src NI=13 Src Router=13 Dest NI=22 Dest Router=6 Set Time=1184500 Width=16 ]



[flit:: Flit_ID=438 PacketId=185 Id=0 Type=3 Size=1 Vnet=0 VC=0 Src NI=1 Src Router=1 Dest NI=25 Dest Router=9 Set Time=1185500 Width=16 ]



[flit:: Flit_ID=439 PacketId=186 Id=0 Type=3 Size=1 Vnet=0 VC=1 Src NI=7 Src Router=7 Dest NI=27 Dest Router=11 Set Time=1191500 Width=16 ]



[flit:: Flit_ID=440 PacketId=187 Id=0 Type=0 Size=5 Vnet=2 VC=8 Src NI=5 Src Router=5 Dest NI=19 Dest Router=3 Set Time=1193500 Width=16 ]



[flit:: Flit_ID=441 PacketId=187 Id=1 Type=1 Size=5 Vnet=2 VC=8 Src NI=5 Src Router=5 Dest NI=19 Dest Router=3 Set Time=1193500 Width=16 ]



[flit:: Flit_ID=442 PacketId=187 Id=2 Type=1 Size=5 Vnet=2 VC=8 Src NI=5 Src Router=5 Dest NI=19 Dest Router=3 Set Time=1193500 Width=16 ]



[flit:: Flit_ID=443 PacketId=187 Id=3 Type=1 Size=5 Vnet=2 VC=8 Src NI=5 Src Router=5 Dest NI=19 Dest Router=3 Set Time=1193500 Width=16 ]



[flit:: Flit_ID=444 PacketId=187 Id=4 Type=2 Size=5 Vnet=2 VC=8 Src NI=5 Src Router=5 Dest NI=19 Dest Router=3 Set Time=1193500 Width=16 ]


 In router 5 


[flit:: Flit_ID=445 PacketId=188 Id=0 Type=3 Size=1 Vnet=0 VC=0 Src NI=14 Src Router=14 Dest NI=29 Dest Router=13 Set Time=1204500 Width=16 ]



[flit:: Flit_ID=446 PacketId=189 Id=0 Type=0 Size=5 Vnet=2 VC=8 Src NI=9 Src Router=9 Dest NI=24 Dest Router=8 Set Time=1212500 Width=16 ]



[flit:: Flit_ID=447 PacketId=189 Id=1 Type=1 Size=5 Vnet=2 VC=8 Src NI=9 Src Router=9 Dest NI=24 Dest Router=8 Set Time=1212500 Width=16 ]



[flit:: Flit_ID=448 PacketId=189 Id=2 Type=1 Size=5 Vnet=2 VC=8 Src NI=9 Src Router=9 Dest NI=24 Dest Router=8 Set Time=1212500 Width=16 ]



[flit:: Flit_ID=449 PacketId=189 Id=3 Type=1 Size=5 Vnet=2 VC=8 Src NI=9 Src Router=9 Dest NI=24 Dest Router=8 Set Time=1212500 Width=16 ]



[flit:: Flit_ID=450 PacketId=189 Id=4 Type=2 Size=5 Vnet=2 VC=8 Src NI=9 Src Router=9 Dest NI=24 Dest Router=8 Set Time=1212500 Width=16 ]



[flit:: Flit_ID=451 PacketId=190 Id=0 Type=3 Size=1 Vnet=0 VC=3 Src NI=6 Src Router=6 Dest NI=26 Dest Router=10 Set Time=1213500 Width=16 ]



[flit:: Flit_ID=452 PacketId=191 Id=0 Type=3 Size=1 Vnet=1 VC=6 Src NI=15 Src Router=15 Dest NI=18 Dest Router=2 Set Time=1215500 Width=16 ]



[flit:: Flit_ID=453 PacketId=192 Id=0 Type=0 Size=5 Vnet=2 VC=10 Src NI=0 Src Router=0 Dest NI=29 Dest Router=13 Set Time=1222500 Width=16 ]



[flit:: Flit_ID=454 PacketId=192 Id=1 Type=1 Size=5 Vnet=2 VC=10 Src NI=0 Src Router=0 Dest NI=29 Dest Router=13 Set Time=1222500 Width=16 ]



[flit:: Flit_ID=455 PacketId=192 Id=2 Type=1 Size=5 Vnet=2 VC=10 Src NI=0 Src Router=0 Dest NI=29 Dest Router=13 Set Time=1222500 Width=16 ]



[flit:: Flit_ID=456 PacketId=192 Id=3 Type=1 Size=5 Vnet=2 VC=10 Src NI=0 Src Router=0 Dest NI=29 Dest Router=13 Set Time=1222500 Width=16 ]



[flit:: Flit_ID=457 PacketId=192 Id=4 Type=2 Size=5 Vnet=2 VC=10 Src NI=0 Src Router=0 Dest NI=29 Dest Router=13 Set Time=1222500 Width=16 ]



[flit:: Flit_ID=458 PacketId=193 Id=0 Type=0 Size=5 Vnet=2 VC=8 Src NI=14 Src Router=14 Dest NI=25 Dest Router=9 Set Time=1226500 Width=16 ]



[flit:: Flit_ID=459 PacketId=193 Id=1 Type=1 Size=5 Vnet=2 VC=8 Src NI=14 Src Router=14 Dest NI=25 Dest Router=9 Set Time=1226500 Width=16 ]



[flit:: Flit_ID=460 PacketId=193 Id=2 Type=1 Size=5 Vnet=2 VC=8 Src NI=14 Src Router=14 Dest NI=25 Dest Router=9 Set Time=1226500 Width=16 ]



[flit:: Flit_ID=461 PacketId=193 Id=3 Type=1 Size=5 Vnet=2 VC=8 Src NI=14 Src Router=14 Dest NI=25 Dest Router=9 Set Time=1226500 Width=16 ]



[flit:: Flit_ID=462 PacketId=193 Id=4 Type=2 Size=5 Vnet=2 VC=8 Src NI=14 Src Router=14 Dest NI=25 Dest Router=9 Set Time=1226500 Width=16 ]


 In router 5 


[flit:: Flit_ID=463 PacketId=194 Id=0 Type=0 Size=5 Vnet=2 VC=11 Src NI=0 Src Router=0 Dest NI=23 Dest Router=7 Set Time=1228500 Width=16 ]



[flit:: Flit_ID=464 PacketId=194 Id=1 Type=1 Size=5 Vnet=2 VC=11 Src NI=0 Src Router=0 Dest NI=23 Dest Router=7 Set Time=1228500 Width=16 ]



[flit:: Flit_ID=465 PacketId=194 Id=2 Type=1 Size=5 Vnet=2 VC=11 Src NI=0 Src Router=0 Dest NI=23 Dest Router=7 Set Time=1228500 Width=16 ]



[flit:: Flit_ID=466 PacketId=194 Id=3 Type=1 Size=5 Vnet=2 VC=11 Src NI=0 Src Router=0 Dest NI=23 Dest Router=7 Set Time=1228500 Width=16 ]



[flit:: Flit_ID=467 PacketId=194 Id=4 Type=2 Size=5 Vnet=2 VC=11 Src NI=0 Src Router=0 Dest NI=23 Dest Router=7 Set Time=1228500 Width=16 ]



[flit:: Flit_ID=468 PacketId=195 Id=0 Type=3 Size=1 Vnet=1 VC=5 Src NI=5 Src Router=5 Dest NI=23 Dest Router=7 Set Time=1231500 Width=16 ]



[flit:: Flit_ID=469 PacketId=196 Id=0 Type=3 Size=1 Vnet=1 VC=4 Src NI=3 Src Router=3 Dest NI=20 Dest Router=4 Set Time=1261500 Width=16 ]



[flit:: Flit_ID=470 PacketId=197 Id=0 Type=3 Size=1 Vnet=0 VC=3 Src NI=4 Src Router=4 Dest NI=21 Dest Router=5 Set Time=1266500 Width=16 ]



[flit:: Flit_ID=471 PacketId=198 Id=0 Type=3 Size=1 Vnet=1 VC=7 Src NI=13 Src Router=13 Dest NI=29 Dest Router=13 Set Time=1266500 Width=16 ]



[flit:: Flit_ID=472 PacketId=199 Id=0 Type=3 Size=1 Vnet=0 VC=2 Src NI=3 Src Router=3 Dest NI=28 Dest Router=12 Set Time=1269500 Width=16 ]



[flit:: Flit_ID=473 PacketId=200 Id=0 Type=0 Size=5 Vnet=2 VC=9 Src NI=15 Src Router=15 Dest NI=17 Dest Router=1 Set Time=1279500 Width=16 ]



[flit:: Flit_ID=474 PacketId=200 Id=1 Type=1 Size=5 Vnet=2 VC=9 Src NI=15 Src Router=15 Dest NI=17 Dest Router=1 Set Time=1279500 Width=16 ]



[flit:: Flit_ID=475 PacketId=200 Id=2 Type=1 Size=5 Vnet=2 VC=9 Src NI=15 Src Router=15 Dest NI=17 Dest Router=1 Set Time=1279500 Width=16 ]



[flit:: Flit_ID=476 PacketId=200 Id=3 Type=1 Size=5 Vnet=2 VC=9 Src NI=15 Src Router=15 Dest NI=17 Dest Router=1 Set Time=1279500 Width=16 ]



[flit:: Flit_ID=477 PacketId=200 Id=4 Type=2 Size=5 Vnet=2 VC=9 Src NI=15 Src Router=15 Dest NI=17 Dest Router=1 Set Time=1279500 Width=16 ]



[flit:: Flit_ID=478 PacketId=201 Id=0 Type=3 Size=1 Vnet=1 VC=4 Src NI=0 Src Router=0 Dest NI=17 Dest Router=1 Set Time=1279500 Width=16 ]



[flit:: Flit_ID=479 PacketId=202 Id=0 Type=3 Size=1 Vnet=0 VC=0 Src NI=10 Src Router=10 Dest NI=26 Dest Router=10 Set Time=1282500 Width=16 ]



[flit:: Flit_ID=480 PacketId=203 Id=0 Type=0 Size=5 Vnet=2 VC=10 Src NI=11 Src Router=11 Dest NI=31 Dest Router=15 Set Time=1282500 Width=16 ]



[flit:: Flit_ID=481 PacketId=203 Id=1 Type=1 Size=5 Vnet=2 VC=10 Src NI=11 Src Router=11 Dest NI=31 Dest Router=15 Set Time=1282500 Width=16 ]



[flit:: Flit_ID=482 PacketId=203 Id=2 Type=1 Size=5 Vnet=2 VC=10 Src NI=11 Src Router=11 Dest NI=31 Dest Router=15 Set Time=1282500 Width=16 ]



[flit:: Flit_ID=483 PacketId=203 Id=3 Type=1 Size=5 Vnet=2 VC=10 Src NI=11 Src Router=11 Dest NI=31 Dest Router=15 Set Time=1282500 Width=16 ]



[flit:: Flit_ID=484 PacketId=203 Id=4 Type=2 Size=5 Vnet=2 VC=10 Src NI=11 Src Router=11 Dest NI=31 Dest Router=15 Set Time=1282500 Width=16 ]



[flit:: Flit_ID=485 PacketId=204 Id=0 Type=3 Size=1 Vnet=0 VC=1 Src NI=12 Src Router=12 Dest NI=22 Dest Router=6 Set Time=1285500 Width=16 ]


 In router 5 


[flit:: Flit_ID=486 PacketId=205 Id=0 Type=3 Size=1 Vnet=0 VC=1 Src NI=10 Src Router=10 Dest NI=23 Dest Router=7 Set Time=1296500 Width=16 ]



[flit:: Flit_ID=487 PacketId=206 Id=0 Type=0 Size=5 Vnet=2 VC=10 Src NI=1 Src Router=1 Dest NI=24 Dest Router=8 Set Time=1309500 Width=16 ]



[flit:: Flit_ID=488 PacketId=206 Id=1 Type=1 Size=5 Vnet=2 VC=10 Src NI=1 Src Router=1 Dest NI=24 Dest Router=8 Set Time=1309500 Width=16 ]



[flit:: Flit_ID=489 PacketId=206 Id=2 Type=1 Size=5 Vnet=2 VC=10 Src NI=1 Src Router=1 Dest NI=24 Dest Router=8 Set Time=1309500 Width=16 ]



[flit:: Flit_ID=490 PacketId=206 Id=3 Type=1 Size=5 Vnet=2 VC=10 Src NI=1 Src Router=1 Dest NI=24 Dest Router=8 Set Time=1309500 Width=16 ]



[flit:: Flit_ID=491 PacketId=206 Id=4 Type=2 Size=5 Vnet=2 VC=10 Src NI=1 Src Router=1 Dest NI=24 Dest Router=8 Set Time=1309500 Width=16 ]



[flit:: Flit_ID=492 PacketId=207 Id=0 Type=0 Size=5 Vnet=2 VC=11 Src NI=1 Src Router=1 Dest NI=17 Dest Router=1 Set Time=1310500 Width=16 ]



[flit:: Flit_ID=493 PacketId=207 Id=1 Type=1 Size=5 Vnet=2 VC=11 Src NI=1 Src Router=1 Dest NI=17 Dest Router=1 Set Time=1310500 Width=16 ]



[flit:: Flit_ID=494 PacketId=207 Id=2 Type=1 Size=5 Vnet=2 VC=11 Src NI=1 Src Router=1 Dest NI=17 Dest Router=1 Set Time=1310500 Width=16 ]



[flit:: Flit_ID=495 PacketId=207 Id=3 Type=1 Size=5 Vnet=2 VC=11 Src NI=1 Src Router=1 Dest NI=17 Dest Router=1 Set Time=1310500 Width=16 ]



[flit:: Flit_ID=496 PacketId=207 Id=4 Type=2 Size=5 Vnet=2 VC=11 Src NI=1 Src Router=1 Dest NI=17 Dest Router=1 Set Time=1310500 Width=16 ]



[flit:: Flit_ID=497 PacketId=208 Id=0 Type=0 Size=5 Vnet=2 VC=10 Src NI=7 Src Router=7 Dest NI=30 Dest Router=14 Set Time=1325500 Width=16 ]



[flit:: Flit_ID=498 PacketId=208 Id=1 Type=1 Size=5 Vnet=2 VC=10 Src NI=7 Src Router=7 Dest NI=30 Dest Router=14 Set Time=1325500 Width=16 ]



[flit:: Flit_ID=499 PacketId=208 Id=2 Type=1 Size=5 Vnet=2 VC=10 Src NI=7 Src Router=7 Dest NI=30 Dest Router=14 Set Time=1325500 Width=16 ]



[flit:: Flit_ID=500 PacketId=208 Id=3 Type=1 Size=5 Vnet=2 VC=10 Src NI=7 Src Router=7 Dest NI=30 Dest Router=14 Set Time=1325500 Width=16 ]



[flit:: Flit_ID=501 PacketId=208 Id=4 Type=2 Size=5 Vnet=2 VC=10 Src NI=7 Src Router=7 Dest NI=30 Dest Router=14 Set Time=1325500 Width=16 ]



[flit:: Flit_ID=502 PacketId=209 Id=0 Type=0 Size=5 Vnet=2 VC=11 Src NI=13 Src Router=13 Dest NI=22 Dest Router=6 Set Time=1328500 Width=16 ]



[flit:: Flit_ID=503 PacketId=209 Id=1 Type=1 Size=5 Vnet=2 VC=11 Src NI=13 Src Router=13 Dest NI=22 Dest Router=6 Set Time=1328500 Width=16 ]



[flit:: Flit_ID=504 PacketId=209 Id=2 Type=1 Size=5 Vnet=2 VC=11 Src NI=13 Src Router=13 Dest NI=22 Dest Router=6 Set Time=1328500 Width=16 ]



[flit:: Flit_ID=505 PacketId=209 Id=3 Type=1 Size=5 Vnet=2 VC=11 Src NI=13 Src Router=13 Dest NI=22 Dest Router=6 Set Time=1328500 Width=16 ]



[flit:: Flit_ID=506 PacketId=209 Id=4 Type=2 Size=5 Vnet=2 VC=11 Src NI=13 Src Router=13 Dest NI=22 Dest Router=6 Set Time=1328500 Width=16 ]



[flit:: Flit_ID=507 PacketId=210 Id=0 Type=3 Size=1 Vnet=0 VC=3 Src NI=5 Src Router=5 Dest NI=21 Dest Router=5 Set Time=1333500 Width=16 ]



[flit:: Flit_ID=508 PacketId=211 Id=0 Type=3 Size=1 Vnet=1 VC=4 Src NI=7 Src Router=7 Dest NI=22 Dest Router=6 Set Time=1338500 Width=16 ]



[flit:: Flit_ID=509 PacketId=212 Id=0 Type=0 Size=5 Vnet=2 VC=8 Src NI=1 Src Router=1 Dest NI=20 Dest Router=4 Set Time=1349500 Width=16 ]



[flit:: Flit_ID=510 PacketId=212 Id=1 Type=1 Size=5 Vnet=2 VC=8 Src NI=1 Src Router=1 Dest NI=20 Dest Router=4 Set Time=1349500 Width=16 ]



[flit:: Flit_ID=511 PacketId=212 Id=2 Type=1 Size=5 Vnet=2 VC=8 Src NI=1 Src Router=1 Dest NI=20 Dest Router=4 Set Time=1349500 Width=16 ]



[flit:: Flit_ID=512 PacketId=212 Id=3 Type=1 Size=5 Vnet=2 VC=8 Src NI=1 Src Router=1 Dest NI=20 Dest Router=4 Set Time=1349500 Width=16 ]



[flit:: Flit_ID=513 PacketId=212 Id=4 Type=2 Size=5 Vnet=2 VC=8 Src NI=1 Src Router=1 Dest NI=20 Dest Router=4 Set Time=1349500 Width=16 ]



[flit:: Flit_ID=514 PacketId=213 Id=0 Type=3 Size=1 Vnet=0 VC=1 Src NI=1 Src Router=1 Dest NI=19 Dest Router=3 Set Time=1356500 Width=16 ]



[flit:: Flit_ID=515 PacketId=214 Id=0 Type=3 Size=1 Vnet=1 VC=6 Src NI=5 Src Router=5 Dest NI=24 Dest Router=8 Set Time=1357500 Width=16 ]



[flit:: Flit_ID=516 PacketId=215 Id=0 Type=3 Size=1 Vnet=1 VC=4 Src NI=8 Src Router=8 Dest NI=29 Dest Router=13 Set Time=1377500 Width=16 ]



[flit:: Flit_ID=517 PacketId=216 Id=0 Type=3 Size=1 Vnet=1 VC=4 Src NI=10 Src Router=10 Dest NI=20 Dest Router=4 Set Time=1390500 Width=16 ]



[flit:: Flit_ID=518 PacketId=217 Id=0 Type=0 Size=5 Vnet=2 VC=10 Src NI=2 Src Router=2 Dest NI=25 Dest Router=9 Set Time=1401500 Width=16 ]



[flit:: Flit_ID=519 PacketId=217 Id=1 Type=1 Size=5 Vnet=2 VC=10 Src NI=2 Src Router=2 Dest NI=25 Dest Router=9 Set Time=1401500 Width=16 ]



[flit:: Flit_ID=520 PacketId=217 Id=2 Type=1 Size=5 Vnet=2 VC=10 Src NI=2 Src Router=2 Dest NI=25 Dest Router=9 Set Time=1401500 Width=16 ]



[flit:: Flit_ID=521 PacketId=217 Id=3 Type=1 Size=5 Vnet=2 VC=10 Src NI=2 Src Router=2 Dest NI=25 Dest Router=9 Set Time=1401500 Width=16 ]



[flit:: Flit_ID=522 PacketId=217 Id=4 Type=2 Size=5 Vnet=2 VC=10 Src NI=2 Src Router=2 Dest NI=25 Dest Router=9 Set Time=1401500 Width=16 ]



[flit:: Flit_ID=523 PacketId=218 Id=0 Type=0 Size=5 Vnet=2 VC=9 Src NI=1 Src Router=1 Dest NI=31 Dest Router=15 Set Time=1402500 Width=16 ]



[flit:: Flit_ID=524 PacketId=218 Id=1 Type=1 Size=5 Vnet=2 VC=9 Src NI=1 Src Router=1 Dest NI=31 Dest Router=15 Set Time=1402500 Width=16 ]



[flit:: Flit_ID=525 PacketId=218 Id=2 Type=1 Size=5 Vnet=2 VC=9 Src NI=1 Src Router=1 Dest NI=31 Dest Router=15 Set Time=1402500 Width=16 ]



[flit:: Flit_ID=526 PacketId=218 Id=3 Type=1 Size=5 Vnet=2 VC=9 Src NI=1 Src Router=1 Dest NI=31 Dest Router=15 Set Time=1402500 Width=16 ]



[flit:: Flit_ID=527 PacketId=218 Id=4 Type=2 Size=5 Vnet=2 VC=9 Src NI=1 Src Router=1 Dest NI=31 Dest Router=15 Set Time=1402500 Width=16 ]



[flit:: Flit_ID=528 PacketId=219 Id=0 Type=3 Size=1 Vnet=0 VC=3 Src NI=3 Src Router=3 Dest NI=29 Dest Router=13 Set Time=1403500 Width=16 ]



[flit:: Flit_ID=529 PacketId=220 Id=0 Type=3 Size=1 Vnet=0 VC=3 Src NI=15 Src Router=15 Dest NI=22 Dest Router=6 Set Time=1404500 Width=16 ]


 In router 5 


[...]



[flit:: Flit_ID=1782 PacketId=726 Id=3 Type=1 Size=5 Vnet=2 VC=10 Src NI=14 Src Router=14 Dest NI=29 Dest Router=13 Set Time=4607500 Width=16 ]



[flit:: Flit_ID=1783 PacketId=726 Id=4 Type=2 Size=5 Vnet=2 VC=10 Src NI=14 Src Router=14 Dest NI=29 Dest Router=13 Set Time=4607500 Width=16 ]



[flit:: Flit_ID=1784 PacketId=727 Id=0 Type=3 Size=1 Vnet=0 VC=0 Src NI=2 Src Router=2 Dest NI=18 Dest Router=2 Set Time=4608500 Width=16 ]



[flit:: Flit_ID=1785 PacketId=728 Id=0 Type=3 Size=1 Vnet=1 VC=4 Src NI=3 Src Router=3 Dest NI=17 Dest Router=1 Set Time=4616500 Width=16 ]



[flit:: Flit_ID=1786 PacketId=729 Id=0 Type=3 Size=1 Vnet=0 VC=2 Src NI=0 Src Router=0 Dest NI=18 Dest Router=2 Set Time=4617500 Width=16 ]



[flit:: Flit_ID=1787 PacketId=730 Id=0 Type=3 Size=1 Vnet=0 VC=3 Src NI=4 Src Router=4 Dest NI=23 Dest Router=7 Set Time=4621500 Width=16 ]



[flit:: Flit_ID=1788 PacketId=731 Id=0 Type=3 Size=1 Vnet=0 VC=2 Src NI=12 Src Router=12 Dest NI=24 Dest Router=8 Set Time=4625500 Width=16 ]



[flit:: Flit_ID=1789 PacketId=732 Id=0 Type=3 Size=1 Vnet=1 VC=4 Src NI=15 Src Router=15 Dest NI=25 Dest Router=9 Set Time=4632500 Width=16 ]



[flit:: Flit_ID=1790 PacketId=733 Id=0 Type=3 Size=1 Vnet=1 VC=5 Src NI=11 Src Router=11 Dest NI=23 Dest Router=7 Set Time=4641500 Width=16 ]



[flit:: Flit_ID=1791 PacketId=734 Id=0 Type=3 Size=1 Vnet=1 VC=6 Src NI=6 Src Router=6 Dest NI=28 Dest Router=12 Set Time=4641500 Width=16 ]



[flit:: Flit_ID=1792 PacketId=735 Id=0 Type=0 Size=5 Vnet=2 VC=8 Src NI=10 Src Router=10 Dest NI=25 Dest Router=9 Set Time=4646500 Width=16 ]



[flit:: Flit_ID=1793 PacketId=735 Id=1 Type=1 Size=5 Vnet=2 VC=8 Src NI=10 Src Router=10 Dest NI=25 Dest Router=9 Set Time=4646500 Width=16 ]



[flit:: Flit_ID=1794 PacketId=735 Id=2 Type=1 Size=5 Vnet=2 VC=8 Src NI=10 Src Router=10 Dest NI=25 Dest Router=9 Set Time=4646500 Width=16 ]



[flit:: Flit_ID=1795 PacketId=735 Id=3 Type=1 Size=5 Vnet=2 VC=8 Src NI=10 Src Router=10 Dest NI=25 Dest Router=9 Set Time=4646500 Width=16 ]



[flit:: Flit_ID=1796 PacketId=735 Id=4 Type=2 Size=5 Vnet=2 VC=8 Src NI=10 Src Router=10 Dest NI=25 Dest Router=9 Set Time=4646500 Width=16 ]



[flit:: Flit_ID=1797 PacketId=736 Id=0 Type=3 Size=1 Vnet=0 VC=0 Src NI=1 Src Router=1 Dest NI=31 Dest Router=15 Set Time=4647500 Width=16 ]



[flit:: Flit_ID=1798 PacketId=737 Id=0 Type=0 Size=5 Vnet=2 VC=10 Src NI=8 Src Router=8 Dest NI=18 Dest Router=2 Set Time=4650500 Width=16 ]



[flit:: Flit_ID=1799 PacketId=737 Id=1 Type=1 Size=5 Vnet=2 VC=10 Src NI=8 Src Router=8 Dest NI=18 Dest Router=2 Set Time=4650500 Width=16 ]



[flit:: Flit_ID=1800 PacketId=737 Id=2 Type=1 Size=5 Vnet=2 VC=10 Src NI=8 Src Router=8 Dest NI=18 Dest Router=2 Set Time=4650500 Width=16 ]



[flit:: Flit_ID=1801 PacketId=737 Id=3 Type=1 Size=5 Vnet=2 VC=10 Src NI=8 Src Router=8 Dest NI=18 Dest Router=2 Set Time=4650500 Width=16 ]



[flit:: Flit_ID=1802 PacketId=737 Id=4 Type=2 Size=5 Vnet=2 VC=10 Src NI=8 Src Router=8 Dest NI=18 Dest Router=2 Set Time=4650500 Width=16 ]



[flit:: Flit_ID=1803 PacketId=738 Id=0 Type=3 Size=1 Vnet=1 VC=5 Src NI=10 Src Router=10 Dest NI=31 Dest Router=15 Set Time=4654500 Width=16 ]



[flit:: Flit_ID=1804 PacketId=739 Id=0 Type=3 Size=1 Vnet=0 VC=1 Src NI=9 Src Router=9 Dest NI=24 Dest Router=8 Set Time=4655500 Width=16 ]



[flit:: Flit_ID=1805 PacketId=740 Id=0 Type=0 Size=5 Vnet=2 VC=8 Src NI=11 Src Router=11 Dest NI=23 Dest Router=7 Set Time=4658500 Width=16 ]



[flit:: Flit_ID=1806 PacketId=740 Id=1 Type=1 Size=5 Vnet=2 VC=8 Src NI=11 Src Router=11 Dest NI=23 Dest Router=7 Set Time=4658500 Width=16 ]



[flit:: Flit_ID=1807 PacketId=740 Id=2 Type=1 Size=5 Vnet=2 VC=8 Src NI=11 Src Router=11 Dest NI=23 Dest Router=7 Set Time=4658500 Width=16 ]



[flit:: Flit_ID=1808 PacketId=740 Id=3 Type=1 Size=5 Vnet=2 VC=8 Src NI=11 Src Router=11 Dest NI=23 Dest Router=7 Set Time=4658500 Width=16 ]



[flit:: Flit_ID=1809 PacketId=740 Id=4 Type=2 Size=5 Vnet=2 VC=8 Src NI=11 Src Router=11 Dest NI=23 Dest Router=7 Set Time=4658500 Width=16 ]



[flit:: Flit_ID=1810 PacketId=741 Id=0 Type=3 Size=1 Vnet=1 VC=5 Src NI=14 Src Router=14 Dest NI=29 Dest Router=13 Set Time=4665500 Width=16 ]



[flit:: Flit_ID=1811 PacketId=742 Id=0 Type=3 Size=1 Vnet=0 VC=2 Src NI=10 Src Router=10 Dest NI=26 Dest Router=10 Set Time=4671500 Width=16 ]



[flit:: Flit_ID=1812 PacketId=743 Id=0 Type=0 Size=5 Vnet=2 VC=10 Src NI=2 Src Router=2 Dest NI=23 Dest Router=7 Set Time=4674500 Width=16 ]



[flit:: Flit_ID=1813 PacketId=743 Id=1 Type=1 Size=5 Vnet=2 VC=10 Src NI=2 Src Router=2 Dest NI=23 Dest Router=7 Set Time=4674500 Width=16 ]



[flit:: Flit_ID=1814 PacketId=743 Id=2 Type=1 Size=5 Vnet=2 VC=10 Src NI=2 Src Router=2 Dest NI=23 Dest Router=7 Set Time=4674500 Width=16 ]



[flit:: Flit_ID=1815 PacketId=743 Id=3 Type=1 Size=5 Vnet=2 VC=10 Src NI=2 Src Router=2 Dest NI=23 Dest Router=7 Set Time=4674500 Width=16 ]



[flit:: Flit_ID=1816 PacketId=743 Id=4 Type=2 Size=5 Vnet=2 VC=10 Src NI=2 Src Router=2 Dest NI=23 Dest Router=7 Set Time=4674500 Width=16 ]



[flit:: Flit_ID=1817 PacketId=744 Id=0 Type=0 Size=5 Vnet=2 VC=10 Src NI=15 Src Router=15 Dest NI=20 Dest Router=4 Set Time=4674500 Width=16 ]



[flit:: Flit_ID=1818 PacketId=744 Id=1 Type=1 Size=5 Vnet=2 VC=10 Src NI=15 Src Router=15 Dest NI=20 Dest Router=4 Set Time=4674500 Width=16 ]



[flit:: Flit_ID=1819 PacketId=744 Id=2 Type=1 Size=5 Vnet=2 VC=10 Src NI=15 Src Router=15 Dest NI=20 Dest Router=4 Set Time=4674500 Width=16 ]



[flit:: Flit_ID=1820 PacketId=744 Id=3 Type=1 Size=5 Vnet=2 VC=10 Src NI=15 Src Router=15 Dest NI=20 Dest Router=4 Set Time=4674500 Width=16 ]



[flit:: Flit_ID=1821 PacketId=744 Id=4 Type=2 Size=5 Vnet=2 VC=10 Src NI=15 Src Router=15 Dest NI=20 Dest Router=4 Set Time=4674500 Width=16 ]



[flit:: Flit_ID=1822 PacketId=745 Id=0 Type=3 Size=1 Vnet=0 VC=2 Src NI=11 Src Router=11 Dest NI=24 Dest Router=8 Set Time=4676500 Width=16 ]



[flit:: Flit_ID=1823 PacketId=746 Id=0 Type=3 Size=1 Vnet=0 VC=0 Src NI=5 Src Router=5 Dest NI=17 Dest Router=1 Set Time=4682500 Width=16 ]



[flit:: Flit_ID=1824 PacketId=747 Id=0 Type=0 Size=5 Vnet=2 VC=11 Src NI=2 Src Router=2 Dest NI=31 Dest Router=15 Set Time=4683500 Width=16 ]



[flit:: Flit_ID=1825 PacketId=747 Id=1 Type=1 Size=5 Vnet=2 VC=11 Src NI=2 Src Router=2 Dest NI=31 Dest Router=15 Set Time=4683500 Width=16 ]



[flit:: Flit_ID=1826 PacketId=747 Id=2 Type=1 Size=5 Vnet=2 VC=11 Src NI=2 Src Router=2 Dest NI=31 Dest Router=15 Set Time=4683500 Width=16 ]



[flit:: Flit_ID=1827 PacketId=747 Id=3 Type=1 Size=5 Vnet=2 VC=11 Src NI=2 Src Router=2 Dest NI=31 Dest Router=15 Set Time=4683500 Width=16 ]



[flit:: Flit_ID=1828 PacketId=747 Id=4 Type=2 Size=5 Vnet=2 VC=11 Src NI=2 Src Router=2 Dest NI=31 Dest Router=15 Set Time=4683500 Width=16 ]



[flit:: Flit_ID=1829 PacketId=748 Id=0 Type=3 Size=1 Vnet=1 VC=5 Src NI=7 Src Router=7 Dest NI=18 Dest Router=2 Set Time=4685500 Width=16 ]



[flit:: Flit_ID=1830 PacketId=749 Id=0 Type=0 Size=5 Vnet=2 VC=11 Src NI=8 Src Router=8 Dest NI=25 Dest Router=9 Set Time=4692500 Width=16 ]



[flit:: Flit_ID=1831 PacketId=749 Id=1 Type=1 Size=5 Vnet=2 VC=11 Src NI=8 Src Router=8 Dest NI=25 Dest Router=9 Set Time=4692500 Width=16 ]



[flit:: Flit_ID=1832 PacketId=749 Id=2 Type=1 Size=5 Vnet=2 VC=11 Src NI=8 Src Router=8 Dest NI=25 Dest Router=9 Set Time=4692500 Width=16 ]



[flit:: Flit_ID=1833 PacketId=749 Id=3 Type=1 Size=5 Vnet=2 VC=11 Src NI=8 Src Router=8 Dest NI=25 Dest Router=9 Set Time=4692500 Width=16 ]



[flit:: Flit_ID=1834 PacketId=749 Id=4 Type=2 Size=5 Vnet=2 VC=11 Src NI=8 Src Router=8 Dest NI=25 Dest Router=9 Set Time=4692500 Width=16 ]



[flit:: Flit_ID=1835 PacketId=750 Id=0 Type=3 Size=1 Vnet=1 VC=5 Src NI=15 Src Router=15 Dest NI=29 Dest Router=13 Set Time=4692500 Width=16 ]



[flit:: Flit_ID=1836 PacketId=751 Id=0 Type=3 Size=1 Vnet=0 VC=1 Src NI=7 Src Router=7 Dest NI=17 Dest Router=1 Set Time=4701500 Width=16 ]



[flit:: Flit_ID=1837 PacketId=752 Id=0 Type=3 Size=1 Vnet=0 VC=3 Src NI=13 Src Router=13 Dest NI=18 Dest Router=2 Set Time=4703500 Width=16 ]



[flit:: Flit_ID=1838 PacketId=753 Id=0 Type=3 Size=1 Vnet=0 VC=3 Src NI=10 Src Router=10 Dest NI=20 Dest Router=4 Set Time=4724500 Width=16 ]



[flit:: Flit_ID=1839 PacketId=754 Id=0 Type=3 Size=1 Vnet=1 VC=7 Src NI=6 Src Router=6 Dest NI=20 Dest Router=4 Set Time=4735500 Width=16 ]



[flit:: Flit_ID=1840 PacketId=755 Id=0 Type=3 Size=1 Vnet=0 VC=3 Src NI=11 Src Router=11 Dest NI=28 Dest Router=12 Set Time=4737500 Width=16 ]



[flit:: Flit_ID=1841 PacketId=756 Id=0 Type=3 Size=1 Vnet=1 VC=5 Src NI=13 Src Router=13 Dest NI=25 Dest Router=9 Set Time=4753500 Width=16 ]



[flit:: Flit_ID=1842 PacketId=757 Id=0 Type=3 Size=1 Vnet=1 VC=4 Src NI=6 Src Router=6 Dest NI=16 Dest Router=0 Set Time=4758500 Width=16 ]



[flit:: Flit_ID=1843 PacketId=758 Id=0 Type=3 Size=1 Vnet=1 VC=6 Src NI=8 Src Router=8 Dest NI=18 Dest Router=2 Set Time=4764500 Width=16 ]



[flit:: Flit_ID=1844 PacketId=759 Id=0 Type=3 Size=1 Vnet=0 VC=1 Src NI=5 Src Router=5 Dest NI=22 Dest Router=6 Set Time=4765500 Width=16 ]



[flit:: Flit_ID=1845 PacketId=760 Id=0 Type=3 Size=1 Vnet=1 VC=6 Src NI=13 Src Router=13 Dest NI=22 Dest Router=6 Set Time=4771500 Width=16 ]



[flit:: Flit_ID=1846 PacketId=761 Id=0 Type=3 Size=1 Vnet=0 VC=0 Src NI=3 Src Router=3 Dest NI=18 Dest Router=2 Set Time=4773500 Width=16 ]



[flit:: Flit_ID=1847 PacketId=762 Id=0 Type=3 Size=1 Vnet=0 VC=1 Src NI=1 Src Router=1 Dest NI=20 Dest Router=4 Set Time=4780500 Width=16 ]



[flit:: Flit_ID=1848 PacketId=763 Id=0 Type=3 Size=1 Vnet=0 VC=1 Src NI=2 Src Router=2 Dest NI=25 Dest Router=9 Set Time=4780500 Width=16 ]



[flit:: Flit_ID=1849 PacketId=764 Id=0 Type=3 Size=1 Vnet=0 VC=0 Src NI=11 Src Router=11 Dest NI=16 Dest Router=0 Set Time=4780500 Width=16 ]



[flit:: Flit_ID=1850 PacketId=765 Id=0 Type=3 Size=1 Vnet=1 VC=6 Src NI=11 Src Router=11 Dest NI=26 Dest Router=10 Set Time=4789500 Width=16 ]



[flit:: Flit_ID=1851 PacketId=766 Id=0 Type=3 Size=1 Vnet=0 VC=2 Src NI=7 Src Router=7 Dest NI=27 Dest Router=11 Set Time=4796500 Width=16 ]



[flit:: Flit_ID=1852 PacketId=767 Id=0 Type=3 Size=1 Vnet=0 VC=2 Src NI=9 Src Router=9 Dest NI=24 Dest Router=8 Set Time=4799500 Width=16 ]



[flit:: Flit_ID=1853 PacketId=768 Id=0 Type=0 Size=5 Vnet=2 VC=11 Src NI=6 Src Router=6 Dest NI=24 Dest Router=8 Set Time=4804500 Width=16 ]



[flit:: Flit_ID=1854 PacketId=768 Id=1 Type=1 Size=5 Vnet=2 VC=11 Src NI=6 Src Router=6 Dest NI=24 Dest Router=8 Set Time=4804500 Width=16 ]



[flit:: Flit_ID=1855 PacketId=768 Id=2 Type=1 Size=5 Vnet=2 VC=11 Src NI=6 Src Router=6 Dest NI=24 Dest Router=8 Set Time=4804500 Width=16 ]



[flit:: Flit_ID=1856 PacketId=768 Id=3 Type=1 Size=5 Vnet=2 VC=11 Src NI=6 Src Router=6 Dest NI=24 Dest Router=8 Set Time=4804500 Width=16 ]



[flit:: Flit_ID=1857 PacketId=768 Id=4 Type=2 Size=5 Vnet=2 VC=11 Src NI=6 Src Router=6 Dest NI=24 Dest Router=8 Set Time=4804500 Width=16 ]



[flit:: Flit_ID=1858 PacketId=769 Id=0 Type=3 Size=1 Vnet=1 VC=7 Src NI=2 Src Router=2 Dest NI=20 Dest Router=4 Set Time=4805500 Width=16 ]


 In router 5 

Changing destination to : 9 from : 8 for flit : 1853 for packet : 0 

here in modified routing algorithm


Router id : 5
flit_id : 1853
Input port direction: East
my x : 1
my y : 1
destination_id : 9
destination x : 1
destination y : 2
x hops : 0
y hops : 1
x direction : 1
y direction : 1
Going to North


[flit:: Flit_ID=1859 PacketId=770 Id=0 Type=3 Size=1 Vnet=0 VC=2 Src NI=1 Src Router=1 Dest NI=19 Dest Router=3 Set Time=4807500 Width=16 ]



[flit:: Flit_ID=1860 PacketId=771 Id=0 Type=3 Size=1 Vnet=0 VC=3 Src NI=15 Src Router=15 Dest NI=16 Dest Router=0 Set Time=4808500 Width=16 ]


 Rerouted packet : 0 reached : 8 from : 9 


[flit:: Flit_ID=1861 PacketId=772 Id=0 Type=0 Size=5 Vnet=2 VC=8 Src NI=2 Src Router=2 Dest NI=29 Dest Router=13 Set Time=4811500 Width=16 ]



[flit:: Flit_ID=1862 PacketId=772 Id=1 Type=1 Size=5 Vnet=2 VC=8 Src NI=2 Src Router=2 Dest NI=29 Dest Router=13 Set Time=4811500 Width=16 ]



[flit:: Flit_ID=1863 PacketId=772 Id=2 Type=1 Size=5 Vnet=2 VC=8 Src NI=2 Src Router=2 Dest NI=29 Dest Router=13 Set Time=4811500 Width=16 ]



[flit:: Flit_ID=1864 PacketId=772 Id=3 Type=1 Size=5 Vnet=2 VC=8 Src NI=2 Src Router=2 Dest NI=29 Dest Router=13 Set Time=4811500 Width=16 ]



[flit:: Flit_ID=1865 PacketId=772 Id=4 Type=2 Size=5 Vnet=2 VC=8 Src NI=2 Src Router=2 Dest NI=29 Dest Router=13 Set Time=4811500 Width=16 ]



[flit:: Flit_ID=1866 PacketId=773 Id=0 Type=3 Size=1 Vnet=0 VC=3 Src NI=9 Src Router=9 Dest NI=28 Dest Router=12 Set Time=4812500 Width=16 ]


 In router 5 

Changing destination to : 15 from : 13 for flit : 1861 for packet : 0 

here in modified routing algorithm


Router id : 5
flit_id : 1861
Input port direction: South
my x : 1
my y : 1
destination_id : 15
destination x : 3
destination y : 3
x hops : 2
y hops : 2
x direction : 1
y direction : 1
Going to East

here in modified routing algorithm


Router id : 6
flit_id : 1861
Input port direction: West
my x : 2
my y : 1
destination_id : 15
destination x : 3
destination y : 3
x hops : 1
y hops : 2
x direction : 1
y direction : 1
Going to East

here in modified routing algorithm


Router id : 7
flit_id : 1861
Input port direction: West
my x : 3
my y : 1
destination_id : 15
destination x : 3
destination y : 3
x hops : 0
y hops : 2
x direction : 1
y direction : 1
Going to North

here in modified routing algorithm


Router id : 11
flit_id : 1861
Input port direction: South
my x : 3
my y : 2
destination_id : 15
destination x : 3
destination y : 3
x hops : 0
y hops : 1
x direction : 1
y direction : 1
Going to North

 Rerouted packet : 0 reached : 13 from : 15 


[flit:: Flit_ID=1867 PacketId=774 Id=0 Type=0 Size=5 Vnet=2 VC=8 Src NI=6 Src Router=6 Dest NI=16 Dest Router=0 Set Time=4831500 Width=16 ]



[flit:: Flit_ID=1868 PacketId=774 Id=1 Type=1 Size=5 Vnet=2 VC=8 Src NI=6 Src Router=6 Dest NI=16 Dest Router=0 Set Time=4831500 Width=16 ]



[flit:: Flit_ID=1869 PacketId=774 Id=2 Type=1 Size=5 Vnet=2 VC=8 Src NI=6 Src Router=6 Dest NI=16 Dest Router=0 Set Time=4831500 Width=16 ]



[flit:: Flit_ID=1870 PacketId=774 Id=3 Type=1 Size=5 Vnet=2 VC=8 Src NI=6 Src Router=6 Dest NI=16 Dest Router=0 Set Time=4831500 Width=16 ]



[flit:: Flit_ID=1871 PacketId=774 Id=4 Type=2 Size=5 Vnet=2 VC=8 Src NI=6 Src Router=6 Dest NI=16 Dest Router=0 Set Time=4831500 Width=16 ]


 In router 5 


[flit:: Flit_ID=1872 PacketId=775 Id=0 Type=3 Size=1 Vnet=0 VC=0 Src NI=15 Src Router=15 Dest NI=30 Dest Router=14 Set Time=4838500 Width=16 ]



[flit:: Flit_ID=1873 PacketId=776 Id=0 Type=3 Size=1 Vnet=0 VC=1 Src NI=3 Src Router=3 Dest NI=24 Dest Router=8 Set Time=4887500 Width=16 ]



[flit:: Flit_ID=1874 PacketId=777 Id=0 Type=3 Size=1 Vnet=1 VC=5 Src NI=3 Src Router=3 Dest NI=16 Dest Router=0 Set Time=4889500 Width=16 ]



[flit:: Flit_ID=1875 PacketId=778 Id=0 Type=3 Size=1 Vnet=1 VC=6 Src NI=9 Src Router=9 Dest NI=20 Dest Router=4 Set Time=4890500 Width=16 ]



[flit:: Flit_ID=1876 PacketId=779 Id=0 Type=0 Size=5 Vnet=2 VC=9 Src NI=6 Src Router=6 Dest NI=29 Dest Router=13 Set Time=4897500 Width=16 ]



[flit:: Flit_ID=1877 PacketId=779 Id=1 Type=1 Size=5 Vnet=2 VC=9 Src NI=6 Src Router=6 Dest NI=29 Dest Router=13 Set Time=4897500 Width=16 ]



[flit:: Flit_ID=1878 PacketId=779 Id=2 Type=1 Size=5 Vnet=2 VC=9 Src NI=6 Src Router=6 Dest NI=29 Dest Router=13 Set Time=4897500 Width=16 ]



[flit:: Flit_ID=1879 PacketId=779 Id=3 Type=1 Size=5 Vnet=2 VC=9 Src NI=6 Src Router=6 Dest NI=29 Dest Router=13 Set Time=4897500 Width=16 ]



[flit:: Flit_ID=1880 PacketId=779 Id=4 Type=2 Size=5 Vnet=2 VC=9 Src NI=6 Src Router=6 Dest NI=29 Dest Router=13 Set Time=4897500 Width=16 ]



[flit:: Flit_ID=1881 PacketId=780 Id=0 Type=3 Size=1 Vnet=1 VC=7 Src NI=5 Src Router=5 Dest NI=16 Dest Router=0 Set Time=4897500 Width=16 ]


 In router 5 


[flit:: Flit_ID=1882 PacketId=781 Id=0 Type=3 Size=1 Vnet=1 VC=6 Src NI=10 Src Router=10 Dest NI=26 Dest Router=10 Set Time=4901500 Width=16 ]



[flit:: Flit_ID=1883 PacketId=782 Id=0 Type=0 Size=5 Vnet=2 VC=10 Src NI=1 Src Router=1 Dest NI=31 Dest Router=15 Set Time=4909500 Width=16 ]



[flit:: Flit_ID=1884 PacketId=782 Id=1 Type=1 Size=5 Vnet=2 VC=10 Src NI=1 Src Router=1 Dest NI=31 Dest Router=15 Set Time=4909500 Width=16 ]



[flit:: Flit_ID=1885 PacketId=782 Id=2 Type=1 Size=5 Vnet=2 VC=10 Src NI=1 Src Router=1 Dest NI=31 Dest Router=15 Set Time=4909500 Width=16 ]



[flit:: Flit_ID=1886 PacketId=782 Id=3 Type=1 Size=5 Vnet=2 VC=10 Src NI=1 Src Router=1 Dest NI=31 Dest Router=15 Set Time=4909500 Width=16 ]



[flit:: Flit_ID=1887 PacketId=782 Id=4 Type=2 Size=5 Vnet=2 VC=10 Src NI=1 Src Router=1 Dest NI=31 Dest Router=15 Set Time=4909500 Width=16 ]



[flit:: Flit_ID=1888 PacketId=783 Id=0 Type=3 Size=1 Vnet=0 VC=0 Src NI=13 Src Router=13 Dest NI=17 Dest Router=1 Set Time=4911500 Width=16 ]



[flit:: Flit_ID=1889 PacketId=784 Id=0 Type=0 Size=5 Vnet=2 VC=11 Src NI=1 Src Router=1 Dest NI=22 Dest Router=6 Set Time=4916500 Width=16 ]



[flit:: Flit_ID=1890 PacketId=784 Id=1 Type=1 Size=5 Vnet=2 VC=11 Src NI=1 Src Router=1 Dest NI=22 Dest Router=6 Set Time=4916500 Width=16 ]



[flit:: Flit_ID=1891 PacketId=784 Id=2 Type=1 Size=5 Vnet=2 VC=11 Src NI=1 Src Router=1 Dest NI=22 Dest Router=6 Set Time=4916500 Width=16 ]



[flit:: Flit_ID=1892 PacketId=784 Id=3 Type=1 Size=5 Vnet=2 VC=11 Src NI=1 Src Router=1 Dest NI=22 Dest Router=6 Set Time=4916500 Width=16 ]



[flit:: Flit_ID=1893 PacketId=784 Id=4 Type=2 Size=5 Vnet=2 VC=11 Src NI=1 Src Router=1 Dest NI=22 Dest Router=6 Set Time=4916500 Width=16 ]



[flit:: Flit_ID=1894 PacketId=785 Id=0 Type=3 Size=1 Vnet=1 VC=4 Src NI=0 Src Router=0 Dest NI=26 Dest Router=10 Set Time=4917500 Width=16 ]



[flit:: Flit_ID=1895 PacketId=786 Id=0 Type=3 Size=1 Vnet=0 VC=0 Src NI=4 Src Router=4 Dest NI=31 Dest Router=15 Set Time=4934500 Width=16 ]



[flit:: Flit_ID=1896 PacketId=787 Id=0 Type=3 Size=1 Vnet=1 VC=7 Src NI=13 Src Router=13 Dest NI=25 Dest Router=9 Set Time=4952500 Width=16 ]



[flit:: Flit_ID=1897 PacketId=788 Id=0 Type=3 Size=1 Vnet=0 VC=3 Src NI=12 Src Router=12 Dest NI=27 Dest Router=11 Set Time=4960500 Width=16 ]



[flit:: Flit_ID=1898 PacketId=789 Id=0 Type=3 Size=1 Vnet=0 VC=0 Src NI=9 Src Router=9 Dest NI=20 Dest Router=4 Set Time=4965500 Width=16 ]



[flit:: Flit_ID=1899 PacketId=790 Id=0 Type=3 Size=1 Vnet=1 VC=4 Src NI=5 Src Router=5 Dest NI=20 Dest Router=4 Set Time=4968500 Width=16 ]



[flit:: Flit_ID=1900 PacketId=791 Id=0 Type=3 Size=1 Vnet=0 VC=1 Src NI=11 Src Router=11 Dest NI=16 Dest Router=0 Set Time=4968500 Width=16 ]



[flit:: Flit_ID=1901 PacketId=792 Id=0 Type=3 Size=1 Vnet=1 VC=6 Src NI=15 Src Router=15 Dest NI=16 Dest Router=0 Set Time=4979500 Width=16 ]



[flit:: Flit_ID=1902 PacketId=793 Id=0 Type=0 Size=5 Vnet=2 VC=9 Src NI=11 Src Router=11 Dest NI=18 Dest Router=2 Set Time=4985500 Width=16 ]



[flit:: Flit_ID=1903 PacketId=793 Id=1 Type=1 Size=5 Vnet=2 VC=9 Src NI=11 Src Router=11 Dest NI=18 Dest Router=2 Set Time=4985500 Width=16 ]



[flit:: Flit_ID=1904 PacketId=793 Id=2 Type=1 Size=5 Vnet=2 VC=9 Src NI=11 Src Router=11 Dest NI=18 Dest Router=2 Set Time=4985500 Width=16 ]



[flit:: Flit_ID=1905 PacketId=793 Id=3 Type=1 Size=5 Vnet=2 VC=9 Src NI=11 Src Router=11 Dest NI=18 Dest Router=2 Set Time=4985500 Width=16 ]



[flit:: Flit_ID=1906 PacketId=793 Id=4 Type=2 Size=5 Vnet=2 VC=9 Src NI=11 Src Router=11 Dest NI=18 Dest Router=2 Set Time=4985500 Width=16 ]



[flit:: Flit_ID=1907 PacketId=794 Id=0 Type=3 Size=1 Vnet=0 VC=2 Src NI=11 Src Router=11 Dest NI=30 Dest Router=14 Set Time=4997500 Width=16 ]



[flit:: Flit_ID=1908 PacketId=795 Id=0 Type=3 Size=1 Vnet=1 VC=7 Src NI=10 Src Router=10 Dest NI=29 Dest Router=13 Set Time=4998500 Width=16 ]

Exiting @ tick 5000000 because Network Tester completed simCycles
