Global frequency set at 1000000000000 ticks per second
gem5 Simulator System.  https://www.gem5.org
gem5 is copyrighted software; use the --copyright option for details.

gem5 version 22.1.0.0
gem5 compiled Mar 26 2023 19:08:56
gem5 started Mar 26 2023 19:10:22
gem5 executing on adwaith-HP-ProDesk-600-G5-PCI-MT, pid 24799
command line: build/X86/gem5.opt configs/example/garnet_synth_traffic.py --num-cpus=64 --num-dirs=64 --network=garnet --topology=Mesh_XY --routing-algorithm=1 --mesh-rows=8 --injectionrate=0.01 --sim-cycles=500000

ControlFlit_ID=0 [flit:: PacketId=0 Id=0 Type=3 Size=1 Vnet=0 VC=0 Src NI=5 Src Router=5 Dest NI=75 Dest Router=11 Set Time=3500 Width=16 ]
ControlFlit_ID=3 [flit:: PacketId=1 Id=0 Type=3 Size=1 Vnet=1 VC=4 Src NI=49 Src Router=49 Dest NI=112 Dest Router=48 Set Time=5500 Width=16 ]
DataFlit_ID=4 [flit:: PacketId=2 Id=0 Type=0 Size=5 Vnet=2 VC=8 Src NI=33 Src Router=33 Dest NI=70 Dest Router=6 Set Time=5500 Width=16 ]
Flit_ID=5 [flit:: PacketId=2 Id=1 Type=1 Size=5 Vnet=2 VC=8 Src NI=33 Src Router=33 Dest NI=70 Dest Router=6 Set Time=5500 Width=16 ]
Flit_ID=6 [flit:: PacketId=2 Id=2 Type=1 Size=5 Vnet=2 VC=8 Src NI=33 Src Router=33 Dest NI=70 Dest Router=6 Set Time=5500 Width=16 ]
Flit_ID=7 [flit:: PacketId=2 Id=3 Type=1 Size=5 Vnet=2 VC=8 Src NI=33 Src Router=33 Dest NI=70 Dest Router=6 Set Time=5500 Width=16 ]
Flit_ID=8 [flit:: PacketId=2 Id=4 Type=2 Size=5 Vnet=2 VC=8 Src NI=33 Src Router=33 Dest NI=70 Dest Router=6 Set Time=5500 Width=16 ]
ControlFlit_ID=12 [flit:: PacketId=3 Id=0 Type=3 Size=1 Vnet=1 VC=4 Src NI=52 Src Router=52 Dest NI=122 Dest Router=58 Set Time=6500 Width=16 ]
ControlFlit_ID=32 [flit:: PacketId=4 Id=0 Type=3 Size=1 Vnet=0 VC=0 Src NI=56 Src Router=56 Dest NI=95 Dest Router=31 Set Time=9500 Width=16 ]
DataFlit_ID=40 [flit:: PacketId=5 Id=0 Type=0 Size=5 Vnet=2 VC=8 Src NI=44 Src Router=44 Dest NI=82 Dest Router=18 Set Time=10500 Width=16 ]
Flit_ID=41 [flit:: PacketId=5 Id=1 Type=1 Size=5 Vnet=2 VC=8 Src NI=44 Src Router=44 Dest NI=82 Dest Router=18 Set Time=10500 Width=16 ]
Flit_ID=42 [flit:: PacketId=5 Id=2 Type=1 Size=5 Vnet=2 VC=8 Src NI=44 Src Router=44 Dest NI=82 Dest Router=18 Set Time=10500 Width=16 ]
Flit_ID=43 [flit:: PacketId=5 Id=3 Type=1 Size=5 Vnet=2 VC=8 Src NI=44 Src Router=44 Dest NI=82 Dest Router=18 Set Time=10500 Width=16 ]
Flit_ID=44 [flit:: PacketId=5 Id=4 Type=2 Size=5 Vnet=2 VC=8 Src NI=44 Src Router=44 Dest NI=82 Dest Router=18 Set Time=10500 Width=16 ]
ControlFlit_ID=94 [flit:: PacketId=6 Id=0 Type=3 Size=1 Vnet=1 VC=4 Src NI=5 Src Router=5 Dest NI=85 Dest Router=21 Set Time=15500 Width=16 ]
ControlFlit_ID=107 [flit:: PacketId=7 Id=0 Type=3 Size=1 Vnet=0 VC=0 Src NI=24 Src Router=24 Dest NI=99 Dest Router=35 Set Time=16500 Width=16 ]
DataFlit_ID=129 [flit:: PacketId=8 Id=0 Type=0 Size=5 Vnet=2 VC=8 Src NI=30 Src Router=30 Dest NI=72 Dest Router=8 Set Time=18500 Width=16 ]
Flit_ID=130 [flit:: PacketId=8 Id=1 Type=1 Size=5 Vnet=2 VC=8 Src NI=30 Src Router=30 Dest NI=72 Dest Router=8 Set Time=18500 Width=16 ]
Flit_ID=131 [flit:: PacketId=8 Id=2 Type=1 Size=5 Vnet=2 VC=8 Src NI=30 Src Router=30 Dest NI=72 Dest Router=8 Set Time=18500 Width=16 ]
Flit_ID=132 [flit:: PacketId=8 Id=3 Type=1 Size=5 Vnet=2 VC=8 Src NI=30 Src Router=30 Dest NI=72 Dest Router=8 Set Time=18500 Width=16 ]
Flit_ID=133 [flit:: PacketId=8 Id=4 Type=2 Size=5 Vnet=2 VC=8 Src NI=30 Src Router=30 Dest NI=72 Dest Router=8 Set Time=18500 Width=16 ]
DataFlit_ID=141 [flit:: PacketId=9 Id=0 Type=0 Size=5 Vnet=2 VC=8 Src NI=17 Src Router=17 Dest NI=87 Dest Router=23 Set Time=19500 Width=16 ]
Flit_ID=142 [flit:: PacketId=9 Id=1 Type=1 Size=5 Vnet=2 VC=8 Src NI=17 Src Router=17 Dest NI=87 Dest Router=23 Set Time=19500 Width=16 ]
Flit_ID=143 [flit:: PacketId=9 Id=2 Type=1 Size=5 Vnet=2 VC=8 Src NI=17 Src Router=17 Dest NI=87 Dest Router=23 Set Time=19500 Width=16 ]
Flit_ID=144 [flit:: PacketId=9 Id=3 Type=1 Size=5 Vnet=2 VC=8 Src NI=17 Src Router=17 Dest NI=87 Dest Router=23 Set Time=19500 Width=16 ]
Flit_ID=145 [flit:: PacketId=9 Id=4 Type=2 Size=5 Vnet=2 VC=8 Src NI=17 Src Router=17 Dest NI=87 Dest Router=23 Set Time=19500 Width=16 ]
ControlFlit_ID=173 [flit:: PacketId=10 Id=0 Type=3 Size=1 Vnet=0 VC=0 Src NI=18 Src Router=18 Dest NI=113 Dest Router=49 Set Time=22500 Width=16 ]
ControlFlit_ID=196 [flit:: PacketId=11 Id=0 Type=3 Size=1 Vnet=1 VC=4 Src NI=47 Src Router=47 Dest NI=96 Dest Router=32 Set Time=24500 Width=16 ]
ControlFlit_ID=209 [flit:: PacketId=12 Id=0 Type=3 Size=1 Vnet=0 VC=0 Src NI=9 Src Router=9 Dest NI=120 Dest Router=56 Set Time=25500 Width=16 ]
DataFlit_ID=223 [flit:: PacketId=13 Id=0 Type=0 Size=5 Vnet=2 VC=8 Src NI=24 Src Router=24 Dest NI=126 Dest Router=62 Set Time=26500 Width=16 ]
Flit_ID=224 [flit:: PacketId=13 Id=1 Type=1 Size=5 Vnet=2 VC=8 Src NI=24 Src Router=24 Dest NI=126 Dest Router=62 Set Time=26500 Width=16 ]
Flit_ID=225 [flit:: PacketId=13 Id=2 Type=1 Size=5 Vnet=2 VC=8 Src NI=24 Src Router=24 Dest NI=126 Dest Router=62 Set Time=26500 Width=16 ]
Flit_ID=226 [flit:: PacketId=13 Id=3 Type=1 Size=5 Vnet=2 VC=8 Src NI=24 Src Router=24 Dest NI=126 Dest Router=62 Set Time=26500 Width=16 ]
Flit_ID=227 [flit:: PacketId=13 Id=4 Type=2 Size=5 Vnet=2 VC=8 Src NI=24 Src Router=24 Dest NI=126 Dest Router=62 Set Time=26500 Width=16 ]
DataFlit_ID=270 [flit:: PacketId=14 Id=0 Type=0 Size=5 Vnet=2 VC=9 Src NI=24 Src Router=24 Dest NI=103 Dest Router=39 Set Time=29500 Width=16 ]
Flit_ID=271 [flit:: PacketId=14 Id=1 Type=1 Size=5 Vnet=2 VC=9 Src NI=24 Src Router=24 Dest NI=103 Dest Router=39 Set Time=29500 Width=16 ]
Flit_ID=272 [flit:: PacketId=14 Id=2 Type=1 Size=5 Vnet=2 VC=9 Src NI=24 Src Router=24 Dest NI=103 Dest Router=39 Set Time=29500 Width=16 ]
Flit_ID=273 [flit:: PacketId=14 Id=3 Type=1 Size=5 Vnet=2 VC=9 Src NI=24 Src Router=24 Dest NI=103 Dest Router=39 Set Time=29500 Width=16 ]
Flit_ID=274 [flit:: PacketId=14 Id=4 Type=2 Size=5 Vnet=2 VC=9 Src NI=24 Src Router=24 Dest NI=103 Dest Router=39 Set Time=29500 Width=16 ]
ControlFlit_ID=286 [flit:: PacketId=15 Id=0 Type=3 Size=1 Vnet=0 VC=0 Src NI=1 Src Router=1 Dest NI=104 Dest Router=40 Set Time=30500 Width=16 ]
ControlFlit_ID=311 [flit:: PacketId=16 Id=0 Type=3 Size=1 Vnet=0 VC=0 Src NI=23 Src Router=23 Dest NI=78 Dest Router=14 Set Time=32500 Width=16 ]
ControlFlit_ID=312 [flit:: PacketId=17 Id=0 Type=3 Size=1 Vnet=0 VC=0 Src NI=28 Src Router=28 Dest NI=94 Dest Router=30 Set Time=32500 Width=16 ]
ControlFlit_ID=313 [flit:: PacketId=18 Id=0 Type=3 Size=1 Vnet=0 VC=0 Src NI=31 Src Router=31 Dest NI=125 Dest Router=61 Set Time=32500 Width=16 ]
ControlFlit_ID=330 [flit:: PacketId=19 Id=0 Type=3 Size=1 Vnet=0 VC=0 Src NI=63 Src Router=63 Dest NI=120 Dest Router=56 Set Time=33500 Width=16 ]
DataFlit_ID=331 [flit:: PacketId=20 Id=0 Type=0 Size=5 Vnet=2 VC=8 Src NI=16 Src Router=16 Dest NI=91 Dest Router=27 Set Time=33500 Width=16 ]
Flit_ID=332 [flit:: PacketId=20 Id=1 Type=1 Size=5 Vnet=2 VC=8 Src NI=16 Src Router=16 Dest NI=91 Dest Router=27 Set Time=33500 Width=16 ]
Flit_ID=333 [flit:: PacketId=20 Id=2 Type=1 Size=5 Vnet=2 VC=8 Src NI=16 Src Router=16 Dest NI=91 Dest Router=27 Set Time=33500 Width=16 ]
Flit_ID=334 [flit:: PacketId=20 Id=3 Type=1 Size=5 Vnet=2 VC=8 Src NI=16 Src Router=16 Dest NI=91 Dest Router=27 Set Time=33500 Width=16 ]
Flit_ID=335 [flit:: PacketId=20 Id=4 Type=2 Size=5 Vnet=2 VC=8 Src NI=16 Src Router=16 Dest NI=91 Dest Router=27 Set Time=33500 Width=16 ]
DataFlit_ID=354 [flit:: PacketId=21 Id=0 Type=0 Size=5 Vnet=2 VC=8 Src NI=61 Src Router=61 Dest NI=111 Dest Router=47 Set Time=34500 Width=16 ]
Flit_ID=355 [flit:: PacketId=21 Id=1 Type=1 Size=5 Vnet=2 VC=8 Src NI=61 Src Router=61 Dest NI=111 Dest Router=47 Set Time=34500 Width=16 ]
Flit_ID=356 [flit:: PacketId=21 Id=2 Type=1 Size=5 Vnet=2 VC=8 Src NI=61 Src Router=61 Dest NI=111 Dest Router=47 Set Time=34500 Width=16 ]
Flit_ID=357 [flit:: PacketId=21 Id=3 Type=1 Size=5 Vnet=2 VC=8 Src NI=61 Src Router=61 Dest NI=111 Dest Router=47 Set Time=34500 Width=16 ]
Flit_ID=358 [flit:: PacketId=21 Id=4 Type=2 Size=5 Vnet=2 VC=8 Src NI=61 Src Router=61 Dest NI=111 Dest Router=47 Set Time=34500 Width=16 ]
DataFlit_ID=378 [flit:: PacketId=22 Id=0 Type=0 Size=5 Vnet=2 VC=8 Src NI=40 Src Router=40 Dest NI=104 Dest Router=40 Set Time=35500 Width=16 ]
Flit_ID=379 [flit:: PacketId=22 Id=1 Type=1 Size=5 Vnet=2 VC=8 Src NI=40 Src Router=40 Dest NI=104 Dest Router=40 Set Time=35500 Width=16 ]
Flit_ID=380 [flit:: PacketId=22 Id=2 Type=1 Size=5 Vnet=2 VC=8 Src NI=40 Src Router=40 Dest NI=104 Dest Router=40 Set Time=35500 Width=16 ]
Flit_ID=381 [flit:: PacketId=22 Id=3 Type=1 Size=5 Vnet=2 VC=8 Src NI=40 Src Router=40 Dest NI=104 Dest Router=40 Set Time=35500 Width=16 ]
Flit_ID=382 [flit:: PacketId=22 Id=4 Type=2 Size=5 Vnet=2 VC=8 Src NI=40 Src Router=40 Dest NI=104 Dest Router=40 Set Time=35500 Width=16 ]
ControlFlit_ID=430 [flit:: PacketId=23 Id=0 Type=3 Size=1 Vnet=1 VC=4 Src NI=32 Src Router=32 Dest NI=126 Dest Router=62 Set Time=37500 Width=16 ]
DataFlit_ID=458 [flit:: PacketId=24 Id=0 Type=0 Size=5 Vnet=2 VC=8 Src NI=52 Src Router=52 Dest NI=111 Dest Router=47 Set Time=38500 Width=16 ]
Flit_ID=459 [flit:: PacketId=24 Id=1 Type=1 Size=5 Vnet=2 VC=8 Src NI=52 Src Router=52 Dest NI=111 Dest Router=47 Set Time=38500 Width=16 ]
Flit_ID=460 [flit:: PacketId=24 Id=2 Type=1 Size=5 Vnet=2 VC=8 Src NI=52 Src Router=52 Dest NI=111 Dest Router=47 Set Time=38500 Width=16 ]
Flit_ID=461 [flit:: PacketId=24 Id=3 Type=1 Size=5 Vnet=2 VC=8 Src NI=52 Src Router=52 Dest NI=111 Dest Router=47 Set Time=38500 Width=16 ]
Flit_ID=462 [flit:: PacketId=24 Id=4 Type=2 Size=5 Vnet=2 VC=8 Src NI=52 Src Router=52 Dest NI=111 Dest Router=47 Set Time=38500 Width=16 ]
DataFlit_ID=511 [flit:: PacketId=25 Id=0 Type=0 Size=5 Vnet=2 VC=8 Src NI=18 Src Router=18 Dest NI=104 Dest Router=40 Set Time=40500 Width=16 ]
Flit_ID=512 [flit:: PacketId=25 Id=1 Type=1 Size=5 Vnet=2 VC=8 Src NI=18 Src Router=18 Dest NI=104 Dest Router=40 Set Time=40500 Width=16 ]
Flit_ID=513 [flit:: PacketId=25 Id=2 Type=1 Size=5 Vnet=2 VC=8 Src NI=18 Src Router=18 Dest NI=104 Dest Router=40 Set Time=40500 Width=16 ]
Flit_ID=514 [flit:: PacketId=25 Id=3 Type=1 Size=5 Vnet=2 VC=8 Src NI=18 Src Router=18 Dest NI=104 Dest Router=40 Set Time=40500 Width=16 ]
Flit_ID=515 [flit:: PacketId=25 Id=4 Type=2 Size=5 Vnet=2 VC=8 Src NI=18 Src Router=18 Dest NI=104 Dest Router=40 Set Time=40500 Width=16 ]
DataFlit_ID=516 [flit:: PacketId=26 Id=0 Type=0 Size=5 Vnet=2 VC=8 Src NI=25 Src Router=25 Dest NI=89 Dest Router=25 Set Time=40500 Width=16 ]
Flit_ID=517 [flit:: PacketId=26 Id=1 Type=1 Size=5 Vnet=2 VC=8 Src NI=25 Src Router=25 Dest NI=89 Dest Router=25 Set Time=40500 Width=16 ]
Flit_ID=518 [flit:: PacketId=26 Id=2 Type=1 Size=5 Vnet=2 VC=8 Src NI=25 Src Router=25 Dest NI=89 Dest Router=25 Set Time=40500 Width=16 ]
Flit_ID=519 [flit:: PacketId=26 Id=3 Type=1 Size=5 Vnet=2 VC=8 Src NI=25 Src Router=25 Dest NI=89 Dest Router=25 Set Time=40500 Width=16 ]
Flit_ID=520 [flit:: PacketId=26 Id=4 Type=2 Size=5 Vnet=2 VC=8 Src NI=25 Src Router=25 Dest NI=89 Dest Router=25 Set Time=40500 Width=16 ]
ControlFlit_ID=521 [flit:: PacketId=27 Id=0 Type=3 Size=1 Vnet=1 VC=4 Src NI=39 Src Router=39 Dest NI=90 Dest Router=26 Set Time=40500 Width=16 ]
ControlFlit_ID=587 [flit:: PacketId=28 Id=0 Type=3 Size=1 Vnet=0 VC=0 Src NI=35 Src Router=35 Dest NI=89 Dest Router=25 Set Time=44500 Width=16 ]
DataFlit_ID=619 [flit:: PacketId=29 Id=0 Type=0 Size=5 Vnet=2 VC=8 Src NI=15 Src Router=15 Dest NI=65 Dest Router=1 Set Time=47500 Width=16 ]
Flit_ID=620 [flit:: PacketId=29 Id=1 Type=1 Size=5 Vnet=2 VC=8 Src NI=15 Src Router=15 Dest NI=65 Dest Router=1 Set Time=47500 Width=16 ]
Flit_ID=621 [flit:: PacketId=29 Id=2 Type=1 Size=5 Vnet=2 VC=8 Src NI=15 Src Router=15 Dest NI=65 Dest Router=1 Set Time=47500 Width=16 ]
Flit_ID=622 [flit:: PacketId=29 Id=3 Type=1 Size=5 Vnet=2 VC=8 Src NI=15 Src Router=15 Dest NI=65 Dest Router=1 Set Time=47500 Width=16 ]
Flit_ID=623 [flit:: PacketId=29 Id=4 Type=2 Size=5 Vnet=2 VC=8 Src NI=15 Src Router=15 Dest NI=65 Dest Router=1 Set Time=47500 Width=16 ]
ControlFlit_ID=639 [flit:: PacketId=30 Id=0 Type=3 Size=1 Vnet=1 VC=4 Src NI=56 Src Router=56 Dest NI=86 Dest Router=22 Set Time=49500 Width=16 ]
ControlFlit_ID=640 [flit:: PacketId=31 Id=0 Type=3 Size=1 Vnet=0 VC=0 Src NI=29 Src Router=29 Dest NI=114 Dest Router=50 Set Time=49500 Width=16 ]
ControlFlit_ID=662 [flit:: PacketId=32 Id=0 Type=3 Size=1 Vnet=1 VC=4 Src NI=55 Src Router=55 Dest NI=103 Dest Router=39 Set Time=52500 Width=16 ]
DataFlit_ID=663 [flit:: PacketId=33 Id=0 Type=0 Size=5 Vnet=2 VC=8 Src NI=63 Src Router=63 Dest NI=105 Dest Router=41 Set Time=52500 Width=16 ]
Flit_ID=664 [flit:: PacketId=33 Id=1 Type=1 Size=5 Vnet=2 VC=8 Src NI=63 Src Router=63 Dest NI=105 Dest Router=41 Set Time=52500 Width=16 ]
Flit_ID=665 [flit:: PacketId=33 Id=2 Type=1 Size=5 Vnet=2 VC=8 Src NI=63 Src Router=63 Dest NI=105 Dest Router=41 Set Time=52500 Width=16 ]
Flit_ID=666 [flit:: PacketId=33 Id=3 Type=1 Size=5 Vnet=2 VC=8 Src NI=63 Src Router=63 Dest NI=105 Dest Router=41 Set Time=52500 Width=16 ]
Flit_ID=667 [flit:: PacketId=33 Id=4 Type=2 Size=5 Vnet=2 VC=8 Src NI=63 Src Router=63 Dest NI=105 Dest Router=41 Set Time=52500 Width=16 ]
ControlFlit_ID=677 [flit:: PacketId=34 Id=0 Type=3 Size=1 Vnet=1 VC=4 Src NI=22 Src Router=22 Dest NI=64 Dest Router=0 Set Time=53500 Width=16 ]
DataFlit_ID=678 [flit:: PacketId=35 Id=0 Type=0 Size=5 Vnet=2 VC=8 Src NI=19 Src Router=19 Dest NI=114 Dest Router=50 Set Time=53500 Width=16 ]
Flit_ID=679 [flit:: PacketId=35 Id=1 Type=1 Size=5 Vnet=2 VC=8 Src NI=19 Src Router=19 Dest NI=114 Dest Router=50 Set Time=53500 Width=16 ]
Flit_ID=680 [flit:: PacketId=35 Id=2 Type=1 Size=5 Vnet=2 VC=8 Src NI=19 Src Router=19 Dest NI=114 Dest Router=50 Set Time=53500 Width=16 ]
Flit_ID=681 [flit:: PacketId=35 Id=3 Type=1 Size=5 Vnet=2 VC=8 Src NI=19 Src Router=19 Dest NI=114 Dest Router=50 Set Time=53500 Width=16 ]
Flit_ID=682 [flit:: PacketId=35 Id=4 Type=2 Size=5 Vnet=2 VC=8 Src NI=19 Src Router=19 Dest NI=114 Dest Router=50 Set Time=53500 Width=16 ]
ControlFlit_ID=696 [flit:: PacketId=36 Id=0 Type=3 Size=1 Vnet=0 VC=0 Src NI=19 Src Router=19 Dest NI=106 Dest Router=42 Set Time=54500 Width=16 ]
ControlFlit_ID=697 [flit:: PacketId=37 Id=0 Type=3 Size=1 Vnet=0 VC=0 Src NI=46 Src Router=46 Dest NI=77 Dest Router=13 Set Time=54500 Width=16 ]
DataFlit_ID=698 [flit:: PacketId=38 Id=0 Type=0 Size=5 Vnet=2 VC=9 Src NI=52 Src Router=52 Dest NI=92 Dest Router=28 Set Time=54500 Width=16 ]
Flit_ID=699 [flit:: PacketId=38 Id=1 Type=1 Size=5 Vnet=2 VC=9 Src NI=52 Src Router=52 Dest NI=92 Dest Router=28 Set Time=54500 Width=16 ]
Flit_ID=700 [flit:: PacketId=38 Id=2 Type=1 Size=5 Vnet=2 VC=9 Src NI=52 Src Router=52 Dest NI=92 Dest Router=28 Set Time=54500 Width=16 ]
Flit_ID=701 [flit:: PacketId=38 Id=3 Type=1 Size=5 Vnet=2 VC=9 Src NI=52 Src Router=52 Dest NI=92 Dest Router=28 Set Time=54500 Width=16 ]
Flit_ID=702 [flit:: PacketId=38 Id=4 Type=2 Size=5 Vnet=2 VC=9 Src NI=52 Src Router=52 Dest NI=92 Dest Router=28 Set Time=54500 Width=16 ]
ControlFlit_ID=826 [flit:: PacketId=39 Id=0 Type=3 Size=1 Vnet=1 VC=4 Src NI=28 Src Router=28 Dest NI=107 Dest Router=43 Set Time=60500 Width=16 ]
DataFlit_ID=842 [flit:: PacketId=40 Id=0 Type=0 Size=5 Vnet=2 VC=8 Src NI=27 Src Router=27 Dest NI=68 Dest Router=4 Set Time=61500 Width=16 ]
Flit_ID=843 [flit:: PacketId=40 Id=1 Type=1 Size=5 Vnet=2 VC=8 Src NI=27 Src Router=27 Dest NI=68 Dest Router=4 Set Time=61500 Width=16 ]
Flit_ID=844 [flit:: PacketId=40 Id=2 Type=1 Size=5 Vnet=2 VC=8 Src NI=27 Src Router=27 Dest NI=68 Dest Router=4 Set Time=61500 Width=16 ]
Flit_ID=845 [flit:: PacketId=40 Id=3 Type=1 Size=5 Vnet=2 VC=8 Src NI=27 Src Router=27 Dest NI=68 Dest Router=4 Set Time=61500 Width=16 ]
Flit_ID=846 [flit:: PacketId=40 Id=4 Type=2 Size=5 Vnet=2 VC=8 Src NI=27 Src Router=27 Dest NI=68 Dest Router=4 Set Time=61500 Width=16 ]
ControlFlit_ID=870 [flit:: PacketId=41 Id=0 Type=3 Size=1 Vnet=1 VC=4 Src NI=45 Src Router=45 Dest NI=75 Dest Router=11 Set Time=63500 Width=16 ]
ControlFlit_ID=887 [flit:: PacketId=42 Id=0 Type=3 Size=1 Vnet=0 VC=1 Src NI=28 Src Router=28 Dest NI=121 Dest Router=57 Set Time=65500 Width=16 ]
DataFlit_ID=888 [flit:: PacketId=43 Id=0 Type=0 Size=5 Vnet=2 VC=9 Src NI=17 Src Router=17 Dest NI=87 Dest Router=23 Set Time=65500 Width=16 ]
Flit_ID=889 [flit:: PacketId=43 Id=1 Type=1 Size=5 Vnet=2 VC=9 Src NI=17 Src Router=17 Dest NI=87 Dest Router=23 Set Time=65500 Width=16 ]
Flit_ID=890 [flit:: PacketId=43 Id=2 Type=1 Size=5 Vnet=2 VC=9 Src NI=17 Src Router=17 Dest NI=87 Dest Router=23 Set Time=65500 Width=16 ]
Flit_ID=891 [flit:: PacketId=43 Id=3 Type=1 Size=5 Vnet=2 VC=9 Src NI=17 Src Router=17 Dest NI=87 Dest Router=23 Set Time=65500 Width=16 ]
Flit_ID=892 [flit:: PacketId=43 Id=4 Type=2 Size=5 Vnet=2 VC=9 Src NI=17 Src Router=17 Dest NI=87 Dest Router=23 Set Time=65500 Width=16 ]
ControlFlit_ID=921 [flit:: PacketId=44 Id=0 Type=3 Size=1 Vnet=1 VC=4 Src NI=40 Src Router=40 Dest NI=118 Dest Router=54 Set Time=68500 Width=16 ]
DataFlit_ID=941 [flit:: PacketId=45 Id=0 Type=0 Size=5 Vnet=2 VC=8 Src NI=32 Src Router=32 Dest NI=98 Dest Router=34 Set Time=70500 Width=16 ]
Flit_ID=942 [flit:: PacketId=45 Id=1 Type=1 Size=5 Vnet=2 VC=8 Src NI=32 Src Router=32 Dest NI=98 Dest Router=34 Set Time=70500 Width=16 ]
Flit_ID=943 [flit:: PacketId=45 Id=2 Type=1 Size=5 Vnet=2 VC=8 Src NI=32 Src Router=32 Dest NI=98 Dest Router=34 Set Time=70500 Width=16 ]
Flit_ID=944 [flit:: PacketId=45 Id=3 Type=1 Size=5 Vnet=2 VC=8 Src NI=32 Src Router=32 Dest NI=98 Dest Router=34 Set Time=70500 Width=16 ]
Flit_ID=945 [flit:: PacketId=45 Id=4 Type=2 Size=5 Vnet=2 VC=8 Src NI=32 Src Router=32 Dest NI=98 Dest Router=34 Set Time=70500 Width=16 ]
ControlFlit_ID=955 [flit:: PacketId=46 Id=0 Type=3 Size=1 Vnet=1 VC=4 Src NI=43 Src Router=43 Dest NI=95 Dest Router=31 Set Time=71500 Width=16 ]
DataFlit_ID=966 [flit:: PacketId=47 Id=0 Type=0 Size=5 Vnet=2 VC=8 Src NI=55 Src Router=55 Dest NI=122 Dest Router=58 Set Time=72500 Width=16 ]
Flit_ID=967 [flit:: PacketId=47 Id=1 Type=1 Size=5 Vnet=2 VC=8 Src NI=55 Src Router=55 Dest NI=122 Dest Router=58 Set Time=72500 Width=16 ]
Flit_ID=968 [flit:: PacketId=47 Id=2 Type=1 Size=5 Vnet=2 VC=8 Src NI=55 Src Router=55 Dest NI=122 Dest Router=58 Set Time=72500 Width=16 ]
Flit_ID=969 [flit:: PacketId=47 Id=3 Type=1 Size=5 Vnet=2 VC=8 Src NI=55 Src Router=55 Dest NI=122 Dest Router=58 Set Time=72500 Width=16 ]
Flit_ID=970 [flit:: PacketId=47 Id=4 Type=2 Size=5 Vnet=2 VC=8 Src NI=55 Src Router=55 Dest NI=122 Dest Router=58 Set Time=72500 Width=16 ]
DataFlit_ID=984 [flit:: PacketId=48 Id=0 Type=0 Size=5 Vnet=2 VC=8 Src NI=57 Src Router=57 Dest NI=101 Dest Router=37 Set Time=73500 Width=16 ]
Flit_ID=985 [flit:: PacketId=48 Id=1 Type=1 Size=5 Vnet=2 VC=8 Src NI=57 Src Router=57 Dest NI=101 Dest Router=37 Set Time=73500 Width=16 ]
Flit_ID=986 [flit:: PacketId=48 Id=2 Type=1 Size=5 Vnet=2 VC=8 Src NI=57 Src Router=57 Dest NI=101 Dest Router=37 Set Time=73500 Width=16 ]
Flit_ID=987 [flit:: PacketId=48 Id=3 Type=1 Size=5 Vnet=2 VC=8 Src NI=57 Src Router=57 Dest NI=101 Dest Router=37 Set Time=73500 Width=16 ]
Flit_ID=988 [flit:: PacketId=48 Id=4 Type=2 Size=5 Vnet=2 VC=8 Src NI=57 Src Router=57 Dest NI=101 Dest Router=37 Set Time=73500 Width=16 ]
ControlFlit_ID=989 [flit:: PacketId=49 Id=0 Type=3 Size=1 Vnet=1 VC=4 Src NI=37 Src Router=37 Dest NI=72 Dest Router=8 Set Time=73500 Width=16 ]
ControlFlit_ID=1007 [flit:: PacketId=50 Id=0 Type=3 Size=1 Vnet=1 VC=4 Src NI=0 Src Router=0 Dest NI=127 Dest Router=63 Set Time=74500 Width=16 ]
DataFlit_ID=1025 [flit:: PacketId=51 Id=0 Type=0 Size=5 Vnet=2 VC=8 Src NI=20 Src Router=20 Dest NI=95 Dest Router=31 Set Time=75500 Width=16 ]
Flit_ID=1026 [flit:: PacketId=51 Id=1 Type=1 Size=5 Vnet=2 VC=8 Src NI=20 Src Router=20 Dest NI=95 Dest Router=31 Set Time=75500 Width=16 ]
Flit_ID=1027 [flit:: PacketId=51 Id=2 Type=1 Size=5 Vnet=2 VC=8 Src NI=20 Src Router=20 Dest NI=95 Dest Router=31 Set Time=75500 Width=16 ]
Flit_ID=1028 [flit:: PacketId=51 Id=3 Type=1 Size=5 Vnet=2 VC=8 Src NI=20 Src Router=20 Dest NI=95 Dest Router=31 Set Time=75500 Width=16 ]
Flit_ID=1029 [flit:: PacketId=51 Id=4 Type=2 Size=5 Vnet=2 VC=8 Src NI=20 Src Router=20 Dest NI=95 Dest Router=31 Set Time=75500 Width=16 ]
ControlFlit_ID=1030 [flit:: PacketId=52 Id=0 Type=3 Size=1 Vnet=0 VC=0 Src NI=14 Src Router=14 Dest NI=100 Dest Router=36 Set Time=75500 Width=16 ]
ControlFlit_ID=1049 [flit:: PacketId=53 Id=0 Type=3 Size=1 Vnet=1 VC=4 Src NI=6 Src Router=6 Dest NI=96 Dest Router=32 Set Time=76500 Width=16 ]
DataFlit_ID=1070 [flit:: PacketId=54 Id=0 Type=0 Size=5 Vnet=2 VC=8 Src NI=54 Src Router=54 Dest NI=77 Dest Router=13 Set Time=77500 Width=16 ]
Flit_ID=1071 [flit:: PacketId=54 Id=1 Type=1 Size=5 Vnet=2 VC=8 Src NI=54 Src Router=54 Dest NI=77 Dest Router=13 Set Time=77500 Width=16 ]
Flit_ID=1072 [flit:: PacketId=54 Id=2 Type=1 Size=5 Vnet=2 VC=8 Src NI=54 Src Router=54 Dest NI=77 Dest Router=13 Set Time=77500 Width=16 ]
Flit_ID=1073 [flit:: PacketId=54 Id=3 Type=1 Size=5 Vnet=2 VC=8 Src NI=54 Src Router=54 Dest NI=77 Dest Router=13 Set Time=77500 Width=16 ]
Flit_ID=1074 [flit:: PacketId=54 Id=4 Type=2 Size=5 Vnet=2 VC=8 Src NI=54 Src Router=54 Dest NI=77 Dest Router=13 Set Time=77500 Width=16 ]
ControlFlit_ID=1096 [flit:: PacketId=55 Id=0 Type=3 Size=1 Vnet=0 VC=0 Src NI=22 Src Router=22 Dest NI=82 Dest Router=18 Set Time=78500 Width=16 ]
ControlFlit_ID=1120 [flit:: PacketId=56 Id=0 Type=3 Size=1 Vnet=1 VC=4 Src NI=23 Src Router=23 Dest NI=88 Dest Router=24 Set Time=79500 Width=16 ]
ControlFlit_ID=1165 [flit:: PacketId=57 Id=0 Type=3 Size=1 Vnet=0 VC=1 Src NI=29 Src Router=29 Dest NI=127 Dest Router=63 Set Time=81500 Width=16 ]
DataFlit_ID=1186 [flit:: PacketId=58 Id=0 Type=0 Size=5 Vnet=2 VC=9 Src NI=19 Src Router=19 Dest NI=124 Dest Router=60 Set Time=82500 Width=16 ]
Flit_ID=1187 [flit:: PacketId=58 Id=1 Type=1 Size=5 Vnet=2 VC=9 Src NI=19 Src Router=19 Dest NI=124 Dest Router=60 Set Time=82500 Width=16 ]
Flit_ID=1188 [flit:: PacketId=58 Id=2 Type=1 Size=5 Vnet=2 VC=9 Src NI=19 Src Router=19 Dest NI=124 Dest Router=60 Set Time=82500 Width=16 ]
Flit_ID=1189 [flit:: PacketId=58 Id=3 Type=1 Size=5 Vnet=2 VC=9 Src NI=19 Src Router=19 Dest NI=124 Dest Router=60 Set Time=82500 Width=16 ]
Flit_ID=1190 [flit:: PacketId=58 Id=4 Type=2 Size=5 Vnet=2 VC=9 Src NI=19 Src Router=19 Dest NI=124 Dest Router=60 Set Time=82500 Width=16 ]
ControlFlit_ID=1244 [flit:: PacketId=59 Id=0 Type=3 Size=1 Vnet=1 VC=4 Src NI=48 Src Router=48 Dest NI=112 Dest Router=48 Set Time=85500 Width=16 ]
DataFlit_ID=1261 [flit:: PacketId=60 Id=0 Type=0 Size=5 Vnet=2 VC=8 Src NI=49 Src Router=49 Dest NI=86 Dest Router=22 Set Time=86500 Width=16 ]
Flit_ID=1262 [flit:: PacketId=60 Id=1 Type=1 Size=5 Vnet=2 VC=8 Src NI=49 Src Router=49 Dest NI=86 Dest Router=22 Set Time=86500 Width=16 ]
Flit_ID=1263 [flit:: PacketId=60 Id=2 Type=1 Size=5 Vnet=2 VC=8 Src NI=49 Src Router=49 Dest NI=86 Dest Router=22 Set Time=86500 Width=16 ]
Flit_ID=1264 [flit:: PacketId=60 Id=3 Type=1 Size=5 Vnet=2 VC=8 Src NI=49 Src Router=49 Dest NI=86 Dest Router=22 Set Time=86500 Width=16 ]
Flit_ID=1265 [flit:: PacketId=60 Id=4 Type=2 Size=5 Vnet=2 VC=8 Src NI=49 Src Router=49 Dest NI=86 Dest Router=22 Set Time=86500 Width=16 ]
DataFlit_ID=1266 [flit:: PacketId=61 Id=0 Type=0 Size=5 Vnet=2 VC=9 Src NI=54 Src Router=54 Dest NI=110 Dest Router=46 Set Time=86500 Width=16 ]
Flit_ID=1267 [flit:: PacketId=61 Id=1 Type=1 Size=5 Vnet=2 VC=9 Src NI=54 Src Router=54 Dest NI=110 Dest Router=46 Set Time=86500 Width=16 ]
Flit_ID=1268 [flit:: PacketId=61 Id=2 Type=1 Size=5 Vnet=2 VC=9 Src NI=54 Src Router=54 Dest NI=110 Dest Router=46 Set Time=86500 Width=16 ]
Flit_ID=1269 [flit:: PacketId=61 Id=3 Type=1 Size=5 Vnet=2 VC=9 Src NI=54 Src Router=54 Dest NI=110 Dest Router=46 Set Time=86500 Width=16 ]
Flit_ID=1270 [flit:: PacketId=61 Id=4 Type=2 Size=5 Vnet=2 VC=9 Src NI=54 Src Router=54 Dest NI=110 Dest Router=46 Set Time=86500 Width=16 ]
ControlFlit_ID=1336 [flit:: PacketId=62 Id=0 Type=3 Size=1 Vnet=0 VC=0 Src NI=13 Src Router=13 Dest NI=83 Dest Router=19 Set Time=90500 Width=16 ]
ControlFlit_ID=1337 [flit:: PacketId=63 Id=0 Type=3 Size=1 Vnet=0 VC=0 Src NI=48 Src Router=48 Dest NI=67 Dest Router=3 Set Time=90500 Width=16 ]
ControlFlit_ID=1361 [flit:: PacketId=64 Id=0 Type=3 Size=1 Vnet=1 VC=4 Src NI=29 Src Router=29 Dest NI=69 Dest Router=5 Set Time=92500 Width=16 ]
ControlFlit_ID=1379 [flit:: PacketId=65 Id=0 Type=3 Size=1 Vnet=1 VC=4 Src NI=30 Src Router=30 Dest NI=91 Dest Router=27 Set Time=94500 Width=16 ]
ControlFlit_ID=1405 [flit:: PacketId=66 Id=0 Type=3 Size=1 Vnet=0 VC=0 Src NI=11 Src Router=11 Dest NI=114 Dest Router=50 Set Time=97500 Width=16 ]
ControlFlit_ID=1413 [flit:: PacketId=67 Id=0 Type=3 Size=1 Vnet=1 VC=5 Src NI=56 Src Router=56 Dest NI=89 Dest Router=25 Set Time=98500 Width=16 ]
ControlFlit_ID=1433 [flit:: PacketId=68 Id=0 Type=3 Size=1 Vnet=1 VC=4 Src NI=17 Src Router=17 Dest NI=121 Dest Router=57 Set Time=104500 Width=16 ]
ControlFlit_ID=1434 [flit:: PacketId=69 Id=0 Type=3 Size=1 Vnet=0 VC=0 Src NI=40 Src Router=40 Dest NI=80 Dest Router=16 Set Time=104500 Width=16 ]
ControlFlit_ID=1441 [flit:: PacketId=70 Id=0 Type=3 Size=1 Vnet=0 VC=1 Src NI=5 Src Router=5 Dest NI=121 Dest Router=57 Set Time=106500 Width=16 ]
DataFlit_ID=1448 [flit:: PacketId=71 Id=0 Type=0 Size=5 Vnet=2 VC=8 Src NI=5 Src Router=5 Dest NI=90 Dest Router=26 Set Time=108500 Width=16 ]
Flit_ID=1449 [flit:: PacketId=71 Id=1 Type=1 Size=5 Vnet=2 VC=8 Src NI=5 Src Router=5 Dest NI=90 Dest Router=26 Set Time=108500 Width=16 ]
Flit_ID=1450 [flit:: PacketId=71 Id=2 Type=1 Size=5 Vnet=2 VC=8 Src NI=5 Src Router=5 Dest NI=90 Dest Router=26 Set Time=108500 Width=16 ]
Flit_ID=1451 [flit:: PacketId=71 Id=3 Type=1 Size=5 Vnet=2 VC=8 Src NI=5 Src Router=5 Dest NI=90 Dest Router=26 Set Time=108500 Width=16 ]
Flit_ID=1452 [flit:: PacketId=71 Id=4 Type=2 Size=5 Vnet=2 VC=8 Src NI=5 Src Router=5 Dest NI=90 Dest Router=26 Set Time=108500 Width=16 ]
ControlFlit_ID=1457 [flit:: PacketId=72 Id=0 Type=3 Size=1 Vnet=0 VC=0 Src NI=47 Src Router=47 Dest NI=100 Dest Router=36 Set Time=109500 Width=16 ]
ControlFlit_ID=1464 [flit:: PacketId=73 Id=0 Type=3 Size=1 Vnet=1 VC=5 Src NI=48 Src Router=48 Dest NI=106 Dest Router=42 Set Time=110500 Width=16 ]
ControlFlit_ID=1481 [flit:: PacketId=74 Id=0 Type=3 Size=1 Vnet=0 VC=1 Src NI=56 Src Router=56 Dest NI=100 Dest Router=36 Set Time=112500 Width=16 ]
ControlFlit_ID=1491 [flit:: PacketId=75 Id=0 Type=3 Size=1 Vnet=0 VC=2 Src NI=29 Src Router=29 Dest NI=75 Dest Router=11 Set Time=113500 Width=16 ]
ControlFlit_ID=1532 [flit:: PacketId=76 Id=0 Type=3 Size=1 Vnet=1 VC=4 Src NI=8 Src Router=8 Dest NI=67 Dest Router=3 Set Time=118500 Width=16 ]
DataFlit_ID=1543 [flit:: PacketId=77 Id=0 Type=0 Size=5 Vnet=2 VC=8 Src NI=23 Src Router=23 Dest NI=70 Dest Router=6 Set Time=122500 Width=16 ]
Flit_ID=1544 [flit:: PacketId=77 Id=1 Type=1 Size=5 Vnet=2 VC=8 Src NI=23 Src Router=23 Dest NI=70 Dest Router=6 Set Time=122500 Width=16 ]
Flit_ID=1545 [flit:: PacketId=77 Id=2 Type=1 Size=5 Vnet=2 VC=8 Src NI=23 Src Router=23 Dest NI=70 Dest Router=6 Set Time=122500 Width=16 ]
Flit_ID=1546 [flit:: PacketId=77 Id=3 Type=1 Size=5 Vnet=2 VC=8 Src NI=23 Src Router=23 Dest NI=70 Dest Router=6 Set Time=122500 Width=16 ]
Flit_ID=1547 [flit:: PacketId=77 Id=4 Type=2 Size=5 Vnet=2 VC=8 Src NI=23 Src Router=23 Dest NI=70 Dest Router=6 Set Time=122500 Width=16 ]
ControlFlit_ID=1550 [flit:: PacketId=78 Id=0 Type=3 Size=1 Vnet=0 VC=0 Src NI=39 Src Router=39 Dest NI=95 Dest Router=31 Set Time=123500 Width=16 ]
ControlFlit_ID=1572 [flit:: PacketId=79 Id=0 Type=3 Size=1 Vnet=0 VC=0 Src NI=42 Src Router=42 Dest NI=116 Dest Router=52 Set Time=127500 Width=16 ]
ControlFlit_ID=1581 [flit:: PacketId=80 Id=0 Type=3 Size=1 Vnet=0 VC=1 Src NI=35 Src Router=35 Dest NI=114 Dest Router=50 Set Time=129500 Width=16 ]
DataFlit_ID=1587 [flit:: PacketId=81 Id=0 Type=0 Size=5 Vnet=2 VC=8 Src NI=2 Src Router=2 Dest NI=126 Dest Router=62 Set Time=131500 Width=16 ]
Flit_ID=1588 [flit:: PacketId=81 Id=1 Type=1 Size=5 Vnet=2 VC=8 Src NI=2 Src Router=2 Dest NI=126 Dest Router=62 Set Time=131500 Width=16 ]
Flit_ID=1589 [flit:: PacketId=81 Id=2 Type=1 Size=5 Vnet=2 VC=8 Src NI=2 Src Router=2 Dest NI=126 Dest Router=62 Set Time=131500 Width=16 ]
Flit_ID=1590 [flit:: PacketId=81 Id=3 Type=1 Size=5 Vnet=2 VC=8 Src NI=2 Src Router=2 Dest NI=126 Dest Router=62 Set Time=131500 Width=16 ]
Flit_ID=1591 [flit:: PacketId=81 Id=4 Type=2 Size=5 Vnet=2 VC=8 Src NI=2 Src Router=2 Dest NI=126 Dest Router=62 Set Time=131500 Width=16 ]
DataFlit_ID=1599 [flit:: PacketId=82 Id=0 Type=0 Size=5 Vnet=2 VC=8 Src NI=0 Src Router=0 Dest NI=82 Dest Router=18 Set Time=133500 Width=16 ]
Flit_ID=1600 [flit:: PacketId=82 Id=1 Type=1 Size=5 Vnet=2 VC=8 Src NI=0 Src Router=0 Dest NI=82 Dest Router=18 Set Time=133500 Width=16 ]
Flit_ID=1601 [flit:: PacketId=82 Id=2 Type=1 Size=5 Vnet=2 VC=8 Src NI=0 Src Router=0 Dest NI=82 Dest Router=18 Set Time=133500 Width=16 ]
Flit_ID=1602 [flit:: PacketId=82 Id=3 Type=1 Size=5 Vnet=2 VC=8 Src NI=0 Src Router=0 Dest NI=82 Dest Router=18 Set Time=133500 Width=16 ]
Flit_ID=1603 [flit:: PacketId=82 Id=4 Type=2 Size=5 Vnet=2 VC=8 Src NI=0 Src Router=0 Dest NI=82 Dest Router=18 Set Time=133500 Width=16 ]
ControlFlit_ID=1610 [flit:: PacketId=83 Id=0 Type=3 Size=1 Vnet=1 VC=4 Src NI=60 Src Router=60 Dest NI=121 Dest Router=57 Set Time=134500 Width=16 ]
ControlFlit_ID=1630 [flit:: PacketId=84 Id=0 Type=3 Size=1 Vnet=1 VC=4 Src NI=16 Src Router=16 Dest NI=114 Dest Router=50 Set Time=136500 Width=16 ]
ControlFlit_ID=1631 [flit:: PacketId=85 Id=0 Type=3 Size=1 Vnet=0 VC=0 Src NI=55 Src Router=55 Dest NI=126 Dest Router=62 Set Time=136500 Width=16 ]
ControlFlit_ID=1658 [flit:: PacketId=86 Id=0 Type=3 Size=1 Vnet=1 VC=4 Src NI=11 Src Router=11 Dest NI=97 Dest Router=33 Set Time=138500 Width=16 ]
DataFlit_ID=1659 [flit:: PacketId=87 Id=0 Type=0 Size=5 Vnet=2 VC=8 Src NI=13 Src Router=13 Dest NI=121 Dest Router=57 Set Time=138500 Width=16 ]
Flit_ID=1660 [flit:: PacketId=87 Id=1 Type=1 Size=5 Vnet=2 VC=8 Src NI=13 Src Router=13 Dest NI=121 Dest Router=57 Set Time=138500 Width=16 ]
Flit_ID=1661 [flit:: PacketId=87 Id=2 Type=1 Size=5 Vnet=2 VC=8 Src NI=13 Src Router=13 Dest NI=121 Dest Router=57 Set Time=138500 Width=16 ]
Flit_ID=1662 [flit:: PacketId=87 Id=3 Type=1 Size=5 Vnet=2 VC=8 Src NI=13 Src Router=13 Dest NI=121 Dest Router=57 Set Time=138500 Width=16 ]
Flit_ID=1663 [flit:: PacketId=87 Id=4 Type=2 Size=5 Vnet=2 VC=8 Src NI=13 Src Router=13 Dest NI=121 Dest Router=57 Set Time=138500 Width=16 ]
ControlFlit_ID=1664 [flit:: PacketId=88 Id=0 Type=3 Size=1 Vnet=0 VC=0 Src NI=27 Src Router=27 Dest NI=83 Dest Router=19 Set Time=138500 Width=16 ]
ControlFlit_ID=1681 [flit:: PacketId=89 Id=0 Type=3 Size=1 Vnet=0 VC=2 Src NI=56 Src Router=56 Dest NI=102 Dest Router=38 Set Time=139500 Width=16 ]
DataFlit_ID=1728 [flit:: PacketId=90 Id=0 Type=0 Size=5 Vnet=2 VC=8 Src NI=60 Src Router=60 Dest NI=65 Dest Router=1 Set Time=142500 Width=16 ]
Flit_ID=1729 [flit:: PacketId=90 Id=1 Type=1 Size=5 Vnet=2 VC=8 Src NI=60 Src Router=60 Dest NI=65 Dest Router=1 Set Time=142500 Width=16 ]
Flit_ID=1730 [flit:: PacketId=90 Id=2 Type=1 Size=5 Vnet=2 VC=8 Src NI=60 Src Router=60 Dest NI=65 Dest Router=1 Set Time=142500 Width=16 ]
Flit_ID=1731 [flit:: PacketId=90 Id=3 Type=1 Size=5 Vnet=2 VC=8 Src NI=60 Src Router=60 Dest NI=65 Dest Router=1 Set Time=142500 Width=16 ]
Flit_ID=1732 [flit:: PacketId=90 Id=4 Type=2 Size=5 Vnet=2 VC=8 Src NI=60 Src Router=60 Dest NI=65 Dest Router=1 Set Time=142500 Width=16 ]
DataFlit_ID=1778 [flit:: PacketId=91 Id=0 Type=0 Size=5 Vnet=2 VC=8 Src NI=21 Src Router=21 Dest NI=101 Dest Router=37 Set Time=145500 Width=16 ]
Flit_ID=1779 [flit:: PacketId=91 Id=1 Type=1 Size=5 Vnet=2 VC=8 Src NI=21 Src Router=21 Dest NI=101 Dest Router=37 Set Time=145500 Width=16 ]
Flit_ID=1780 [flit:: PacketId=91 Id=2 Type=1 Size=5 Vnet=2 VC=8 Src NI=21 Src Router=21 Dest NI=101 Dest Router=37 Set Time=145500 Width=16 ]
Flit_ID=1781 [flit:: PacketId=91 Id=3 Type=1 Size=5 Vnet=2 VC=8 Src NI=21 Src Router=21 Dest NI=101 Dest Router=37 Set Time=145500 Width=16 ]
Flit_ID=1782 [flit:: PacketId=91 Id=4 Type=2 Size=5 Vnet=2 VC=8 Src NI=21 Src Router=21 Dest NI=101 Dest Router=37 Set Time=145500 Width=16 ]
ControlFlit_ID=1869 [flit:: PacketId=92 Id=0 Type=3 Size=1 Vnet=0 VC=1 Src NI=46 Src Router=46 Dest NI=96 Dest Router=32 Set Time=151500 Width=16 ]
DataFlit_ID=1886 [flit:: PacketId=93 Id=0 Type=0 Size=5 Vnet=2 VC=9 Src NI=32 Src Router=32 Dest NI=120 Dest Router=56 Set Time=153500 Width=16 ]
Flit_ID=1887 [flit:: PacketId=93 Id=1 Type=1 Size=5 Vnet=2 VC=9 Src NI=32 Src Router=32 Dest NI=120 Dest Router=56 Set Time=153500 Width=16 ]
Flit_ID=1888 [flit:: PacketId=93 Id=2 Type=1 Size=5 Vnet=2 VC=9 Src NI=32 Src Router=32 Dest NI=120 Dest Router=56 Set Time=153500 Width=16 ]
Flit_ID=1889 [flit:: PacketId=93 Id=3 Type=1 Size=5 Vnet=2 VC=9 Src NI=32 Src Router=32 Dest NI=120 Dest Router=56 Set Time=153500 Width=16 ]
Flit_ID=1890 [flit:: PacketId=93 Id=4 Type=2 Size=5 Vnet=2 VC=9 Src NI=32 Src Router=32 Dest NI=120 Dest Router=56 Set Time=153500 Width=16 ]
DataFlit_ID=1931 [flit:: PacketId=94 Id=0 Type=0 Size=5 Vnet=2 VC=9 Src NI=63 Src Router=63 Dest NI=84 Dest Router=20 Set Time=159500 Width=16 ]
Flit_ID=1932 [flit:: PacketId=94 Id=1 Type=1 Size=5 Vnet=2 VC=9 Src NI=63 Src Router=63 Dest NI=84 Dest Router=20 Set Time=159500 Width=16 ]
Flit_ID=1933 [flit:: PacketId=94 Id=2 Type=1 Size=5 Vnet=2 VC=9 Src NI=63 Src Router=63 Dest NI=84 Dest Router=20 Set Time=159500 Width=16 ]
Flit_ID=1934 [flit:: PacketId=94 Id=3 Type=1 Size=5 Vnet=2 VC=9 Src NI=63 Src Router=63 Dest NI=84 Dest Router=20 Set Time=159500 Width=16 ]
Flit_ID=1935 [flit:: PacketId=94 Id=4 Type=2 Size=5 Vnet=2 VC=9 Src NI=63 Src Router=63 Dest NI=84 Dest Router=20 Set Time=159500 Width=16 ]
DataFlit_ID=1944 [flit:: PacketId=95 Id=0 Type=0 Size=5 Vnet=2 VC=8 Src NI=28 Src Router=28 Dest NI=82 Dest Router=18 Set Time=161500 Width=16 ]
Flit_ID=1945 [flit:: PacketId=95 Id=1 Type=1 Size=5 Vnet=2 VC=8 Src NI=28 Src Router=28 Dest NI=82 Dest Router=18 Set Time=161500 Width=16 ]
Flit_ID=1946 [flit:: PacketId=95 Id=2 Type=1 Size=5 Vnet=2 VC=8 Src NI=28 Src Router=28 Dest NI=82 Dest Router=18 Set Time=161500 Width=16 ]
Flit_ID=1947 [flit:: PacketId=95 Id=3 Type=1 Size=5 Vnet=2 VC=8 Src NI=28 Src Router=28 Dest NI=82 Dest Router=18 Set Time=161500 Width=16 ]
Flit_ID=1948 [flit:: PacketId=95 Id=4 Type=2 Size=5 Vnet=2 VC=8 Src NI=28 Src Router=28 Dest NI=82 Dest Router=18 Set Time=161500 Width=16 ]
DataFlit_ID=1954 [flit:: PacketId=96 Id=0 Type=0 Size=5 Vnet=2 VC=8 Src NI=3 Src Router=3 Dest NI=88 Dest Router=24 Set Time=162500 Width=16 ]
Flit_ID=1955 [flit:: PacketId=96 Id=1 Type=1 Size=5 Vnet=2 VC=8 Src NI=3 Src Router=3 Dest NI=88 Dest Router=24 Set Time=162500 Width=16 ]
Flit_ID=1956 [flit:: PacketId=96 Id=2 Type=1 Size=5 Vnet=2 VC=8 Src NI=3 Src Router=3 Dest NI=88 Dest Router=24 Set Time=162500 Width=16 ]
Flit_ID=1957 [flit:: PacketId=96 Id=3 Type=1 Size=5 Vnet=2 VC=8 Src NI=3 Src Router=3 Dest NI=88 Dest Router=24 Set Time=162500 Width=16 ]
Flit_ID=1958 [flit:: PacketId=96 Id=4 Type=2 Size=5 Vnet=2 VC=8 Src NI=3 Src Router=3 Dest NI=88 Dest Router=24 Set Time=162500 Width=16 ]
DataFlit_ID=1959 [flit:: PacketId=97 Id=0 Type=0 Size=5 Vnet=2 VC=8 Src NI=9 Src Router=9 Dest NI=64 Dest Router=0 Set Time=162500 Width=16 ]
Flit_ID=1960 [flit:: PacketId=97 Id=1 Type=1 Size=5 Vnet=2 VC=8 Src NI=9 Src Router=9 Dest NI=64 Dest Router=0 Set Time=162500 Width=16 ]
Flit_ID=1961 [flit:: PacketId=97 Id=2 Type=1 Size=5 Vnet=2 VC=8 Src NI=9 Src Router=9 Dest NI=64 Dest Router=0 Set Time=162500 Width=16 ]
Flit_ID=1962 [flit:: PacketId=97 Id=3 Type=1 Size=5 Vnet=2 VC=8 Src NI=9 Src Router=9 Dest NI=64 Dest Router=0 Set Time=162500 Width=16 ]
Flit_ID=1963 [flit:: PacketId=97 Id=4 Type=2 Size=5 Vnet=2 VC=8 Src NI=9 Src Router=9 Dest NI=64 Dest Router=0 Set Time=162500 Width=16 ]
ControlFlit_ID=1989 [flit:: PacketId=98 Id=0 Type=3 Size=1 Vnet=1 VC=5 Src NI=6 Src Router=6 Dest NI=116 Dest Router=52 Set Time=164500 Width=16 ]
ControlFlit_ID=2049 [flit:: PacketId=99 Id=0 Type=3 Size=1 Vnet=1 VC=4 Src NI=53 Src Router=53 Dest NI=94 Dest Router=30 Set Time=167500 Width=16 ]
ControlFlit_ID=2050 [flit:: PacketId=100 Id=0 Type=3 Size=1 Vnet=1 VC=4 Src NI=33 Src Router=33 Dest NI=87 Dest Router=23 Set Time=167500 Width=16 ]
ControlFlit_ID=2083 [flit:: PacketId=101 Id=0 Type=3 Size=1 Vnet=0 VC=1 Src NI=55 Src Router=55 Dest NI=64 Dest Router=0 Set Time=169500 Width=16 ]
DataFlit_ID=2122 [flit:: PacketId=102 Id=0 Type=0 Size=5 Vnet=2 VC=8 Src NI=22 Src Router=22 Dest NI=64 Dest Router=0 Set Time=174500 Width=16 ]
Flit_ID=2123 [flit:: PacketId=102 Id=1 Type=1 Size=5 Vnet=2 VC=8 Src NI=22 Src Router=22 Dest NI=64 Dest Router=0 Set Time=174500 Width=16 ]
Flit_ID=2124 [flit:: PacketId=102 Id=2 Type=1 Size=5 Vnet=2 VC=8 Src NI=22 Src Router=22 Dest NI=64 Dest Router=0 Set Time=174500 Width=16 ]
Flit_ID=2125 [flit:: PacketId=102 Id=3 Type=1 Size=5 Vnet=2 VC=8 Src NI=22 Src Router=22 Dest NI=64 Dest Router=0 Set Time=174500 Width=16 ]
Flit_ID=2126 [flit:: PacketId=102 Id=4 Type=2 Size=5 Vnet=2 VC=8 Src NI=22 Src Router=22 Dest NI=64 Dest Router=0 Set Time=174500 Width=16 ]
ControlFlit_ID=2127 [flit:: PacketId=103 Id=0 Type=3 Size=1 Vnet=0 VC=0 Src NI=34 Src Router=34 Dest NI=112 Dest Router=48 Set Time=174500 Width=16 ]
ControlFlit_ID=2128 [flit:: PacketId=104 Id=0 Type=3 Size=1 Vnet=1 VC=5 Src NI=53 Src Router=53 Dest NI=94 Dest Router=30 Set Time=174500 Width=16 ]
ControlFlit_ID=2157 [flit:: PacketId=105 Id=0 Type=3 Size=1 Vnet=0 VC=0 Src NI=36 Src Router=36 Dest NI=117 Dest Router=53 Set Time=178500 Width=16 ]
DataFlit_ID=2176 [flit:: PacketId=106 Id=0 Type=0 Size=5 Vnet=2 VC=9 Src NI=3 Src Router=3 Dest NI=114 Dest Router=50 Set Time=180500 Width=16 ]
Flit_ID=2177 [flit:: PacketId=106 Id=1 Type=1 Size=5 Vnet=2 VC=9 Src NI=3 Src Router=3 Dest NI=114 Dest Router=50 Set Time=180500 Width=16 ]
Flit_ID=2178 [flit:: PacketId=106 Id=2 Type=1 Size=5 Vnet=2 VC=9 Src NI=3 Src Router=3 Dest NI=114 Dest Router=50 Set Time=180500 Width=16 ]
Flit_ID=2179 [flit:: PacketId=106 Id=3 Type=1 Size=5 Vnet=2 VC=9 Src NI=3 Src Router=3 Dest NI=114 Dest Router=50 Set Time=180500 Width=16 ]
Flit_ID=2180 [flit:: PacketId=106 Id=4 Type=2 Size=5 Vnet=2 VC=9 Src NI=3 Src Router=3 Dest NI=114 Dest Router=50 Set Time=180500 Width=16 ]
ControlFlit_ID=2219 [flit:: PacketId=107 Id=0 Type=3 Size=1 Vnet=0 VC=0 Src NI=2 Src Router=2 Dest NI=88 Dest Router=24 Set Time=184500 Width=16 ]
DataFlit_ID=2220 [flit:: PacketId=108 Id=0 Type=0 Size=5 Vnet=2 VC=9 Src NI=9 Src Router=9 Dest NI=84 Dest Router=20 Set Time=184500 Width=16 ]
Flit_ID=2221 [flit:: PacketId=108 Id=1 Type=1 Size=5 Vnet=2 VC=9 Src NI=9 Src Router=9 Dest NI=84 Dest Router=20 Set Time=184500 Width=16 ]
Flit_ID=2222 [flit:: PacketId=108 Id=2 Type=1 Size=5 Vnet=2 VC=9 Src NI=9 Src Router=9 Dest NI=84 Dest Router=20 Set Time=184500 Width=16 ]
Flit_ID=2223 [flit:: PacketId=108 Id=3 Type=1 Size=5 Vnet=2 VC=9 Src NI=9 Src Router=9 Dest NI=84 Dest Router=20 Set Time=184500 Width=16 ]
Flit_ID=2224 [flit:: PacketId=108 Id=4 Type=2 Size=5 Vnet=2 VC=9 Src NI=9 Src Router=9 Dest NI=84 Dest Router=20 Set Time=184500 Width=16 ]
ControlFlit_ID=2237 [flit:: PacketId=109 Id=0 Type=3 Size=1 Vnet=0 VC=1 Src NI=39 Src Router=39 Dest NI=85 Dest Router=21 Set Time=185500 Width=16 ]
ControlFlit_ID=2298 [flit:: PacketId=110 Id=0 Type=3 Size=1 Vnet=0 VC=1 Src NI=2 Src Router=2 Dest NI=92 Dest Router=28 Set Time=190500 Width=16 ]
ControlFlit_ID=2315 [flit:: PacketId=111 Id=0 Type=3 Size=1 Vnet=0 VC=0 Src NI=12 Src Router=12 Dest NI=94 Dest Router=30 Set Time=194500 Width=16 ]
ControlFlit_ID=2316 [flit:: PacketId=112 Id=0 Type=3 Size=1 Vnet=0 VC=0 Src NI=43 Src Router=43 Dest NI=124 Dest Router=60 Set Time=194500 Width=16 ]
DataFlit_ID=2320 [flit:: PacketId=113 Id=0 Type=0 Size=5 Vnet=2 VC=8 Src NI=11 Src Router=11 Dest NI=117 Dest Router=53 Set Time=195500 Width=16 ]
Flit_ID=2321 [flit:: PacketId=113 Id=1 Type=1 Size=5 Vnet=2 VC=8 Src NI=11 Src Router=11 Dest NI=117 Dest Router=53 Set Time=195500 Width=16 ]
Flit_ID=2322 [flit:: PacketId=113 Id=2 Type=1 Size=5 Vnet=2 VC=8 Src NI=11 Src Router=11 Dest NI=117 Dest Router=53 Set Time=195500 Width=16 ]
Flit_ID=2323 [flit:: PacketId=113 Id=3 Type=1 Size=5 Vnet=2 VC=8 Src NI=11 Src Router=11 Dest NI=117 Dest Router=53 Set Time=195500 Width=16 ]
Flit_ID=2324 [flit:: PacketId=113 Id=4 Type=2 Size=5 Vnet=2 VC=8 Src NI=11 Src Router=11 Dest NI=117 Dest Router=53 Set Time=195500 Width=16 ]
ControlFlit_ID=2329 [flit:: PacketId=114 Id=0 Type=3 Size=1 Vnet=1 VC=4 Src NI=63 Src Router=63 Dest NI=106 Dest Router=42 Set Time=196500 Width=16 ]
DataFlit_ID=2337 [flit:: PacketId=115 Id=0 Type=0 Size=5 Vnet=2 VC=8 Src NI=53 Src Router=53 Dest NI=89 Dest Router=25 Set Time=197500 Width=16 ]
Flit_ID=2338 [flit:: PacketId=115 Id=1 Type=1 Size=5 Vnet=2 VC=8 Src NI=53 Src Router=53 Dest NI=89 Dest Router=25 Set Time=197500 Width=16 ]
Flit_ID=2339 [flit:: PacketId=115 Id=2 Type=1 Size=5 Vnet=2 VC=8 Src NI=53 Src Router=53 Dest NI=89 Dest Router=25 Set Time=197500 Width=16 ]
Flit_ID=2340 [flit:: PacketId=115 Id=3 Type=1 Size=5 Vnet=2 VC=8 Src NI=53 Src Router=53 Dest NI=89 Dest Router=25 Set Time=197500 Width=16 ]
Flit_ID=2341 [flit:: PacketId=115 Id=4 Type=2 Size=5 Vnet=2 VC=8 Src NI=53 Src Router=53 Dest NI=89 Dest Router=25 Set Time=197500 Width=16 ]
ControlFlit_ID=2350 [flit:: PacketId=116 Id=0 Type=3 Size=1 Vnet=0 VC=0 Src NI=37 Src Router=37 Dest NI=115 Dest Router=51 Set Time=198500 Width=16 ]
ControlFlit_ID=2363 [flit:: PacketId=117 Id=0 Type=3 Size=1 Vnet=0 VC=0 Src NI=15 Src Router=15 Dest NI=95 Dest Router=31 Set Time=199500 Width=16 ]
DataFlit_ID=2428 [flit:: PacketId=118 Id=0 Type=0 Size=5 Vnet=2 VC=9 Src NI=53 Src Router=53 Dest NI=112 Dest Router=48 Set Time=204500 Width=16 ]
Flit_ID=2429 [flit:: PacketId=118 Id=1 Type=1 Size=5 Vnet=2 VC=9 Src NI=53 Src Router=53 Dest NI=112 Dest Router=48 Set Time=204500 Width=16 ]
Flit_ID=2430 [flit:: PacketId=118 Id=2 Type=1 Size=5 Vnet=2 VC=9 Src NI=53 Src Router=53 Dest NI=112 Dest Router=48 Set Time=204500 Width=16 ]
Flit_ID=2431 [flit:: PacketId=118 Id=3 Type=1 Size=5 Vnet=2 VC=9 Src NI=53 Src Router=53 Dest NI=112 Dest Router=48 Set Time=204500 Width=16 ]
Flit_ID=2432 [flit:: PacketId=118 Id=4 Type=2 Size=5 Vnet=2 VC=9 Src NI=53 Src Router=53 Dest NI=112 Dest Router=48 Set Time=204500 Width=16 ]
ControlFlit_ID=2433 [flit:: PacketId=119 Id=0 Type=3 Size=1 Vnet=0 VC=1 Src NI=63 Src Router=63 Dest NI=114 Dest Router=50 Set Time=204500 Width=16 ]
DataFlit_ID=2446 [flit:: PacketId=120 Id=0 Type=0 Size=5 Vnet=2 VC=9 Src NI=57 Src Router=57 Dest NI=77 Dest Router=13 Set Time=205500 Width=16 ]
Flit_ID=2447 [flit:: PacketId=120 Id=1 Type=1 Size=5 Vnet=2 VC=9 Src NI=57 Src Router=57 Dest NI=77 Dest Router=13 Set Time=205500 Width=16 ]
Flit_ID=2448 [flit:: PacketId=120 Id=2 Type=1 Size=5 Vnet=2 VC=9 Src NI=57 Src Router=57 Dest NI=77 Dest Router=13 Set Time=205500 Width=16 ]
Flit_ID=2449 [flit:: PacketId=120 Id=3 Type=1 Size=5 Vnet=2 VC=9 Src NI=57 Src Router=57 Dest NI=77 Dest Router=13 Set Time=205500 Width=16 ]
Flit_ID=2450 [flit:: PacketId=120 Id=4 Type=2 Size=5 Vnet=2 VC=9 Src NI=57 Src Router=57 Dest NI=77 Dest Router=13 Set Time=205500 Width=16 ]
DataFlit_ID=2463 [flit:: PacketId=121 Id=0 Type=0 Size=5 Vnet=2 VC=9 Src NI=40 Src Router=40 Dest NI=124 Dest Router=60 Set Time=206500 Width=16 ]
Flit_ID=2464 [flit:: PacketId=121 Id=1 Type=1 Size=5 Vnet=2 VC=9 Src NI=40 Src Router=40 Dest NI=124 Dest Router=60 Set Time=206500 Width=16 ]
Flit_ID=2465 [flit:: PacketId=121 Id=2 Type=1 Size=5 Vnet=2 VC=9 Src NI=40 Src Router=40 Dest NI=124 Dest Router=60 Set Time=206500 Width=16 ]
Flit_ID=2466 [flit:: PacketId=121 Id=3 Type=1 Size=5 Vnet=2 VC=9 Src NI=40 Src Router=40 Dest NI=124 Dest Router=60 Set Time=206500 Width=16 ]
Flit_ID=2467 [flit:: PacketId=121 Id=4 Type=2 Size=5 Vnet=2 VC=9 Src NI=40 Src Router=40 Dest NI=124 Dest Router=60 Set Time=206500 Width=16 ]
ControlFlit_ID=2482 [flit:: PacketId=122 Id=0 Type=3 Size=1 Vnet=0 VC=0 Src NI=59 Src Router=59 Dest NI=87 Dest Router=23 Set Time=207500 Width=16 ]
ControlFlit_ID=2483 [flit:: PacketId=123 Id=0 Type=3 Size=1 Vnet=1 VC=5 Src NI=0 Src Router=0 Dest NI=124 Dest Router=60 Set Time=207500 Width=16 ]
DataFlit_ID=2500 [flit:: PacketId=124 Id=0 Type=0 Size=5 Vnet=2 VC=8 Src NI=39 Src Router=39 Dest NI=79 Dest Router=15 Set Time=208500 Width=16 ]
Flit_ID=2501 [flit:: PacketId=124 Id=1 Type=1 Size=5 Vnet=2 VC=8 Src NI=39 Src Router=39 Dest NI=79 Dest Router=15 Set Time=208500 Width=16 ]
Flit_ID=2502 [flit:: PacketId=124 Id=2 Type=1 Size=5 Vnet=2 VC=8 Src NI=39 Src Router=39 Dest NI=79 Dest Router=15 Set Time=208500 Width=16 ]
Flit_ID=2503 [flit:: PacketId=124 Id=3 Type=1 Size=5 Vnet=2 VC=8 Src NI=39 Src Router=39 Dest NI=79 Dest Router=15 Set Time=208500 Width=16 ]
Flit_ID=2504 [flit:: PacketId=124 Id=4 Type=2 Size=5 Vnet=2 VC=8 Src NI=39 Src Router=39 Dest NI=79 Dest Router=15 Set Time=208500 Width=16 ]
ControlFlit_ID=2515 [flit:: PacketId=125 Id=0 Type=3 Size=1 Vnet=1 VC=6 Src NI=53 Src Router=53 Dest NI=124 Dest Router=60 Set Time=209500 Width=16 ]
ControlFlit_ID=2546 [flit:: PacketId=126 Id=0 Type=3 Size=1 Vnet=1 VC=5 Src NI=45 Src Router=45 Dest NI=107 Dest Router=43 Set Time=210500 Width=16 ]
DataFlit_ID=2547 [flit:: PacketId=127 Id=0 Type=0 Size=5 Vnet=2 VC=8 Src NI=46 Src Router=46 Dest NI=76 Dest Router=12 Set Time=210500 Width=16 ]
Flit_ID=2548 [flit:: PacketId=127 Id=1 Type=1 Size=5 Vnet=2 VC=8 Src NI=46 Src Router=46 Dest NI=76 Dest Router=12 Set Time=210500 Width=16 ]
Flit_ID=2549 [flit:: PacketId=127 Id=2 Type=1 Size=5 Vnet=2 VC=8 Src NI=46 Src Router=46 Dest NI=76 Dest Router=12 Set Time=210500 Width=16 ]
Flit_ID=2550 [flit:: PacketId=127 Id=3 Type=1 Size=5 Vnet=2 VC=8 Src NI=46 Src Router=46 Dest NI=76 Dest Router=12 Set Time=210500 Width=16 ]
Flit_ID=2551 [flit:: PacketId=127 Id=4 Type=2 Size=5 Vnet=2 VC=8 Src NI=46 Src Router=46 Dest NI=76 Dest Router=12 Set Time=210500 Width=16 ]
ControlFlit_ID=2577 [flit:: PacketId=128 Id=0 Type=3 Size=1 Vnet=0 VC=1 Src NI=18 Src Router=18 Dest NI=71 Dest Router=7 Set Time=211500 Width=16 ]
ControlFlit_ID=2718 [flit:: PacketId=129 Id=0 Type=3 Size=1 Vnet=0 VC=0 Src NI=60 Src Router=60 Dest NI=101 Dest Router=37 Set Time=218500 Width=16 ]
ControlFlit_ID=2737 [flit:: PacketId=130 Id=0 Type=3 Size=1 Vnet=0 VC=0 Src NI=10 Src Router=10 Dest NI=104 Dest Router=40 Set Time=221500 Width=16 ]
DataFlit_ID=2742 [flit:: PacketId=131 Id=0 Type=0 Size=5 Vnet=2 VC=10 Src NI=54 Src Router=54 Dest NI=103 Dest Router=39 Set Time=223500 Width=16 ]
Flit_ID=2743 [flit:: PacketId=131 Id=1 Type=1 Size=5 Vnet=2 VC=10 Src NI=54 Src Router=54 Dest NI=103 Dest Router=39 Set Time=223500 Width=16 ]
Flit_ID=2744 [flit:: PacketId=131 Id=2 Type=1 Size=5 Vnet=2 VC=10 Src NI=54 Src Router=54 Dest NI=103 Dest Router=39 Set Time=223500 Width=16 ]
Flit_ID=2745 [flit:: PacketId=131 Id=3 Type=1 Size=5 Vnet=2 VC=10 Src NI=54 Src Router=54 Dest NI=103 Dest Router=39 Set Time=223500 Width=16 ]
Flit_ID=2746 [flit:: PacketId=131 Id=4 Type=2 Size=5 Vnet=2 VC=10 Src NI=54 Src Router=54 Dest NI=103 Dest Router=39 Set Time=223500 Width=16 ]
ControlFlit_ID=2776 [flit:: PacketId=132 Id=0 Type=3 Size=1 Vnet=0 VC=2 Src NI=39 Src Router=39 Dest NI=124 Dest Router=60 Set Time=229500 Width=16 ]
ControlFlit_ID=2780 [flit:: PacketId=133 Id=0 Type=3 Size=1 Vnet=0 VC=0 Src NI=30 Src Router=30 Dest NI=72 Dest Router=8 Set Time=230500 Width=16 ]
ControlFlit_ID=2788 [flit:: PacketId=134 Id=0 Type=3 Size=1 Vnet=1 VC=4 Src NI=54 Src Router=54 Dest NI=87 Dest Router=23 Set Time=233500 Width=16 ]
ControlFlit_ID=2789 [flit:: PacketId=135 Id=0 Type=3 Size=1 Vnet=1 VC=4 Src NI=41 Src Router=41 Dest NI=104 Dest Router=40 Set Time=233500 Width=16 ]
ControlFlit_ID=2805 [flit:: PacketId=136 Id=0 Type=3 Size=1 Vnet=0 VC=0 Src NI=45 Src Router=45 Dest NI=123 Dest Router=59 Set Time=237500 Width=16 ]
ControlFlit_ID=2806 [flit:: PacketId=137 Id=0 Type=3 Size=1 Vnet=1 VC=4 Src NI=14 Src Router=14 Dest NI=85 Dest Router=21 Set Time=237500 Width=16 ]
DataFlit_ID=2815 [flit:: PacketId=138 Id=0 Type=0 Size=5 Vnet=2 VC=10 Src NI=40 Src Router=40 Dest NI=106 Dest Router=42 Set Time=239500 Width=16 ]
Flit_ID=2816 [flit:: PacketId=138 Id=1 Type=1 Size=5 Vnet=2 VC=10 Src NI=40 Src Router=40 Dest NI=106 Dest Router=42 Set Time=239500 Width=16 ]
Flit_ID=2817 [flit:: PacketId=138 Id=2 Type=1 Size=5 Vnet=2 VC=10 Src NI=40 Src Router=40 Dest NI=106 Dest Router=42 Set Time=239500 Width=16 ]
Flit_ID=2818 [flit:: PacketId=138 Id=3 Type=1 Size=5 Vnet=2 VC=10 Src NI=40 Src Router=40 Dest NI=106 Dest Router=42 Set Time=239500 Width=16 ]
Flit_ID=2819 [flit:: PacketId=138 Id=4 Type=2 Size=5 Vnet=2 VC=10 Src NI=40 Src Router=40 Dest NI=106 Dest Router=42 Set Time=239500 Width=16 ]
ControlFlit_ID=2820 [flit:: PacketId=139 Id=0 Type=3 Size=1 Vnet=1 VC=4 Src NI=10 Src Router=10 Dest NI=81 Dest Router=17 Set Time=239500 Width=16 ]
DataFlit_ID=2827 [flit:: PacketId=140 Id=0 Type=0 Size=5 Vnet=2 VC=10 Src NI=19 Src Router=19 Dest NI=116 Dest Router=52 Set Time=240500 Width=16 ]
Flit_ID=2828 [flit:: PacketId=140 Id=1 Type=1 Size=5 Vnet=2 VC=10 Src NI=19 Src Router=19 Dest NI=116 Dest Router=52 Set Time=240500 Width=16 ]
Flit_ID=2829 [flit:: PacketId=140 Id=2 Type=1 Size=5 Vnet=2 VC=10 Src NI=19 Src Router=19 Dest NI=116 Dest Router=52 Set Time=240500 Width=16 ]
Flit_ID=2830 [flit:: PacketId=140 Id=3 Type=1 Size=5 Vnet=2 VC=10 Src NI=19 Src Router=19 Dest NI=116 Dest Router=52 Set Time=240500 Width=16 ]
Flit_ID=2831 [flit:: PacketId=140 Id=4 Type=2 Size=5 Vnet=2 VC=10 Src NI=19 Src Router=19 Dest NI=116 Dest Router=52 Set Time=240500 Width=16 ]
ControlFlit_ID=2839 [flit:: PacketId=141 Id=0 Type=3 Size=1 Vnet=0 VC=0 Src NI=25 Src Router=25 Dest NI=99 Dest Router=35 Set Time=241500 Width=16 ]
DataFlit_ID=2872 [flit:: PacketId=142 Id=0 Type=0 Size=5 Vnet=2 VC=8 Src NI=14 Src Router=14 Dest NI=84 Dest Router=20 Set Time=244500 Width=16 ]
Flit_ID=2873 [flit:: PacketId=142 Id=1 Type=1 Size=5 Vnet=2 VC=8 Src NI=14 Src Router=14 Dest NI=84 Dest Router=20 Set Time=244500 Width=16 ]
Flit_ID=2874 [flit:: PacketId=142 Id=2 Type=1 Size=5 Vnet=2 VC=8 Src NI=14 Src Router=14 Dest NI=84 Dest Router=20 Set Time=244500 Width=16 ]
Flit_ID=2875 [flit:: PacketId=142 Id=3 Type=1 Size=5 Vnet=2 VC=8 Src NI=14 Src Router=14 Dest NI=84 Dest Router=20 Set Time=244500 Width=16 ]
Flit_ID=2876 [flit:: PacketId=142 Id=4 Type=2 Size=5 Vnet=2 VC=8 Src NI=14 Src Router=14 Dest NI=84 Dest Router=20 Set Time=244500 Width=16 ]
ControlFlit_ID=2886 [flit:: PacketId=143 Id=0 Type=3 Size=1 Vnet=0 VC=2 Src NI=46 Src Router=46 Dest NI=126 Dest Router=62 Set Time=245500 Width=16 ]
ControlFlit_ID=2887 [flit:: PacketId=144 Id=0 Type=3 Size=1 Vnet=1 VC=5 Src NI=5 Src Router=5 Dest NI=78 Dest Router=14 Set Time=245500 Width=16 ]
DataFlit_ID=2922 [flit:: PacketId=145 Id=0 Type=0 Size=5 Vnet=2 VC=8 Src NI=1 Src Router=1 Dest NI=77 Dest Router=13 Set Time=248500 Width=16 ]
Flit_ID=2923 [flit:: PacketId=145 Id=1 Type=1 Size=5 Vnet=2 VC=8 Src NI=1 Src Router=1 Dest NI=77 Dest Router=13 Set Time=248500 Width=16 ]
Flit_ID=2924 [flit:: PacketId=145 Id=2 Type=1 Size=5 Vnet=2 VC=8 Src NI=1 Src Router=1 Dest NI=77 Dest Router=13 Set Time=248500 Width=16 ]
Flit_ID=2925 [flit:: PacketId=145 Id=3 Type=1 Size=5 Vnet=2 VC=8 Src NI=1 Src Router=1 Dest NI=77 Dest Router=13 Set Time=248500 Width=16 ]
Flit_ID=2926 [flit:: PacketId=145 Id=4 Type=2 Size=5 Vnet=2 VC=8 Src NI=1 Src Router=1 Dest NI=77 Dest Router=13 Set Time=248500 Width=16 ]
ControlFlit_ID=2951 [flit:: PacketId=146 Id=0 Type=3 Size=1 Vnet=0 VC=1 Src NI=30 Src Router=30 Dest NI=102 Dest Router=38 Set Time=251500 Width=16 ]
DataFlit_ID=2965 [flit:: PacketId=147 Id=0 Type=0 Size=5 Vnet=2 VC=8 Src NI=29 Src Router=29 Dest NI=104 Dest Router=40 Set Time=253500 Width=16 ]
Flit_ID=2966 [flit:: PacketId=147 Id=1 Type=1 Size=5 Vnet=2 VC=8 Src NI=29 Src Router=29 Dest NI=104 Dest Router=40 Set Time=253500 Width=16 ]
Flit_ID=2967 [flit:: PacketId=147 Id=2 Type=1 Size=5 Vnet=2 VC=8 Src NI=29 Src Router=29 Dest NI=104 Dest Router=40 Set Time=253500 Width=16 ]
Flit_ID=2968 [flit:: PacketId=147 Id=3 Type=1 Size=5 Vnet=2 VC=8 Src NI=29 Src Router=29 Dest NI=104 Dest Router=40 Set Time=253500 Width=16 ]
Flit_ID=2969 [flit:: PacketId=147 Id=4 Type=2 Size=5 Vnet=2 VC=8 Src NI=29 Src Router=29 Dest NI=104 Dest Router=40 Set Time=253500 Width=16 ]
ControlFlit_ID=2970 [flit:: PacketId=148 Id=0 Type=3 Size=1 Vnet=1 VC=4 Src NI=24 Src Router=24 Dest NI=76 Dest Router=12 Set Time=253500 Width=16 ]
ControlFlit_ID=2979 [flit:: PacketId=149 Id=0 Type=3 Size=1 Vnet=0 VC=1 Src NI=34 Src Router=34 Dest NI=105 Dest Router=41 Set Time=254500 Width=16 ]
DataFlit_ID=3017 [flit:: PacketId=150 Id=0 Type=0 Size=5 Vnet=2 VC=8 Src NI=62 Src Router=62 Dest NI=77 Dest Router=13 Set Time=258500 Width=16 ]
Flit_ID=3018 [flit:: PacketId=150 Id=1 Type=1 Size=5 Vnet=2 VC=8 Src NI=62 Src Router=62 Dest NI=77 Dest Router=13 Set Time=258500 Width=16 ]
Flit_ID=3019 [flit:: PacketId=150 Id=2 Type=1 Size=5 Vnet=2 VC=8 Src NI=62 Src Router=62 Dest NI=77 Dest Router=13 Set Time=258500 Width=16 ]
Flit_ID=3020 [flit:: PacketId=150 Id=3 Type=1 Size=5 Vnet=2 VC=8 Src NI=62 Src Router=62 Dest NI=77 Dest Router=13 Set Time=258500 Width=16 ]
Flit_ID=3021 [flit:: PacketId=150 Id=4 Type=2 Size=5 Vnet=2 VC=8 Src NI=62 Src Router=62 Dest NI=77 Dest Router=13 Set Time=258500 Width=16 ]
DataFlit_ID=3029 [flit:: PacketId=151 Id=0 Type=0 Size=5 Vnet=2 VC=8 Src NI=36 Src Router=36 Dest NI=92 Dest Router=28 Set Time=259500 Width=16 ]
Flit_ID=3030 [flit:: PacketId=151 Id=1 Type=1 Size=5 Vnet=2 VC=8 Src NI=36 Src Router=36 Dest NI=92 Dest Router=28 Set Time=259500 Width=16 ]
Flit_ID=3031 [flit:: PacketId=151 Id=2 Type=1 Size=5 Vnet=2 VC=8 Src NI=36 Src Router=36 Dest NI=92 Dest Router=28 Set Time=259500 Width=16 ]
Flit_ID=3032 [flit:: PacketId=151 Id=3 Type=1 Size=5 Vnet=2 VC=8 Src NI=36 Src Router=36 Dest NI=92 Dest Router=28 Set Time=259500 Width=16 ]
Flit_ID=3033 [flit:: PacketId=151 Id=4 Type=2 Size=5 Vnet=2 VC=8 Src NI=36 Src Router=36 Dest NI=92 Dest Router=28 Set Time=259500 Width=16 ]
ControlFlit_ID=3034 [flit:: PacketId=152 Id=0 Type=3 Size=1 Vnet=0 VC=1 Src NI=19 Src Router=19 Dest NI=103 Dest Router=39 Set Time=259500 Width=16 ]
ControlFlit_ID=3046 [flit:: PacketId=153 Id=0 Type=3 Size=1 Vnet=0 VC=0 Src NI=6 Src Router=6 Dest NI=95 Dest Router=31 Set Time=260500 Width=16 ]
ControlFlit_ID=3047 [flit:: PacketId=154 Id=0 Type=3 Size=1 Vnet=1 VC=5 Src NI=63 Src Router=63 Dest NI=123 Dest Router=59 Set Time=260500 Width=16 ]
ControlFlit_ID=3064 [flit:: PacketId=155 Id=0 Type=3 Size=1 Vnet=1 VC=5 Src NI=29 Src Router=29 Dest NI=66 Dest Router=2 Set Time=261500 Width=16 ]
ControlFlit_ID=3083 [flit:: PacketId=156 Id=0 Type=3 Size=1 Vnet=1 VC=4 Src NI=2 Src Router=2 Dest NI=125 Dest Router=61 Set Time=262500 Width=16 ]
ControlFlit_ID=3102 [flit:: PacketId=157 Id=0 Type=3 Size=1 Vnet=0 VC=2 Src NI=55 Src Router=55 Dest NI=106 Dest Router=42 Set Time=263500 Width=16 ]
ControlFlit_ID=3141 [flit:: PacketId=158 Id=0 Type=3 Size=1 Vnet=1 VC=5 Src NI=60 Src Router=60 Dest NI=98 Dest Router=34 Set Time=266500 Width=16 ]
ControlFlit_ID=3153 [flit:: PacketId=159 Id=0 Type=3 Size=1 Vnet=0 VC=2 Src NI=2 Src Router=2 Dest NI=77 Dest Router=13 Set Time=267500 Width=16 ]
DataFlit_ID=3163 [flit:: PacketId=160 Id=0 Type=0 Size=5 Vnet=2 VC=8 Src NI=12 Src Router=12 Dest NI=65 Dest Router=1 Set Time=268500 Width=16 ]
Flit_ID=3164 [flit:: PacketId=160 Id=1 Type=1 Size=5 Vnet=2 VC=8 Src NI=12 Src Router=12 Dest NI=65 Dest Router=1 Set Time=268500 Width=16 ]
Flit_ID=3165 [flit:: PacketId=160 Id=2 Type=1 Size=5 Vnet=2 VC=8 Src NI=12 Src Router=12 Dest NI=65 Dest Router=1 Set Time=268500 Width=16 ]
Flit_ID=3166 [flit:: PacketId=160 Id=3 Type=1 Size=5 Vnet=2 VC=8 Src NI=12 Src Router=12 Dest NI=65 Dest Router=1 Set Time=268500 Width=16 ]
Flit_ID=3167 [flit:: PacketId=160 Id=4 Type=2 Size=5 Vnet=2 VC=8 Src NI=12 Src Router=12 Dest NI=65 Dest Router=1 Set Time=268500 Width=16 ]
ControlFlit_ID=3176 [flit:: PacketId=161 Id=0 Type=3 Size=1 Vnet=1 VC=4 Src NI=50 Src Router=50 Dest NI=120 Dest Router=56 Set Time=269500 Width=16 ]
ControlFlit_ID=3177 [flit:: PacketId=162 Id=0 Type=3 Size=1 Vnet=0 VC=2 Src NI=34 Src Router=34 Dest NI=107 Dest Router=43 Set Time=269500 Width=16 ]
ControlFlit_ID=3198 [flit:: PacketId=163 Id=0 Type=3 Size=1 Vnet=0 VC=0 Src NI=51 Src Router=51 Dest NI=71 Dest Router=7 Set Time=271500 Width=16 ]
ControlFlit_ID=3210 [flit:: PacketId=164 Id=0 Type=3 Size=1 Vnet=1 VC=5 Src NI=10 Src Router=10 Dest NI=118 Dest Router=54 Set Time=272500 Width=16 ]
ControlFlit_ID=3211 [flit:: PacketId=165 Id=0 Type=3 Size=1 Vnet=1 VC=4 Src NI=26 Src Router=26 Dest NI=102 Dest Router=38 Set Time=272500 Width=16 ]
ControlFlit_ID=3235 [flit:: PacketId=166 Id=0 Type=3 Size=1 Vnet=1 VC=5 Src NI=32 Src Router=32 Dest NI=100 Dest Router=36 Set Time=274500 Width=16 ]
ControlFlit_ID=3244 [flit:: PacketId=167 Id=0 Type=3 Size=1 Vnet=0 VC=0 Src NI=26 Src Router=26 Dest NI=79 Dest Router=15 Set Time=275500 Width=16 ]
ControlFlit_ID=3258 [flit:: PacketId=168 Id=0 Type=3 Size=1 Vnet=0 VC=0 Src NI=44 Src Router=44 Dest NI=75 Dest Router=11 Set Time=277500 Width=16 ]
ControlFlit_ID=3265 [flit:: PacketId=169 Id=0 Type=3 Size=1 Vnet=0 VC=1 Src NI=25 Src Router=25 Dest NI=108 Dest Router=44 Set Time=278500 Width=16 ]
ControlFlit_ID=3294 [flit:: PacketId=170 Id=0 Type=3 Size=1 Vnet=0 VC=0 Src NI=53 Src Router=53 Dest NI=120 Dest Router=56 Set Time=283500 Width=16 ]
ControlFlit_ID=3299 [flit:: PacketId=171 Id=0 Type=3 Size=1 Vnet=0 VC=1 Src NI=22 Src Router=22 Dest NI=122 Dest Router=58 Set Time=284500 Width=16 ]
ControlFlit_ID=3300 [flit:: PacketId=172 Id=0 Type=3 Size=1 Vnet=0 VC=1 Src NI=48 Src Router=48 Dest NI=93 Dest Router=29 Set Time=284500 Width=16 ]
DataFlit_ID=3305 [flit:: PacketId=173 Id=0 Type=0 Size=5 Vnet=2 VC=8 Src NI=41 Src Router=41 Dest NI=124 Dest Router=60 Set Time=285500 Width=16 ]
Flit_ID=3306 [flit:: PacketId=173 Id=1 Type=1 Size=5 Vnet=2 VC=8 Src NI=41 Src Router=41 Dest NI=124 Dest Router=60 Set Time=285500 Width=16 ]
Flit_ID=3307 [flit:: PacketId=173 Id=2 Type=1 Size=5 Vnet=2 VC=8 Src NI=41 Src Router=41 Dest NI=124 Dest Router=60 Set Time=285500 Width=16 ]
Flit_ID=3308 [flit:: PacketId=173 Id=3 Type=1 Size=5 Vnet=2 VC=8 Src NI=41 Src Router=41 Dest NI=124 Dest Router=60 Set Time=285500 Width=16 ]
Flit_ID=3309 [flit:: PacketId=173 Id=4 Type=2 Size=5 Vnet=2 VC=8 Src NI=41 Src Router=41 Dest NI=124 Dest Router=60 Set Time=285500 Width=16 ]
ControlFlit_ID=3310 [flit:: PacketId=174 Id=0 Type=3 Size=1 Vnet=0 VC=2 Src NI=19 Src Router=19 Dest NI=98 Dest Router=34 Set Time=285500 Width=16 ]
ControlFlit_ID=3340 [flit:: PacketId=175 Id=0 Type=3 Size=1 Vnet=0 VC=0 Src NI=57 Src Router=57 Dest NI=84 Dest Router=20 Set Time=289500 Width=16 ]
DataFlit_ID=3360 [flit:: PacketId=176 Id=0 Type=0 Size=5 Vnet=2 VC=11 Src NI=40 Src Router=40 Dest NI=98 Dest Router=34 Set Time=291500 Width=16 ]
Flit_ID=3361 [flit:: PacketId=176 Id=1 Type=1 Size=5 Vnet=2 VC=11 Src NI=40 Src Router=40 Dest NI=98 Dest Router=34 Set Time=291500 Width=16 ]
Flit_ID=3362 [flit:: PacketId=176 Id=2 Type=1 Size=5 Vnet=2 VC=11 Src NI=40 Src Router=40 Dest NI=98 Dest Router=34 Set Time=291500 Width=16 ]
Flit_ID=3363 [flit:: PacketId=176 Id=3 Type=1 Size=5 Vnet=2 VC=11 Src NI=40 Src Router=40 Dest NI=98 Dest Router=34 Set Time=291500 Width=16 ]
Flit_ID=3364 [flit:: PacketId=176 Id=4 Type=2 Size=5 Vnet=2 VC=11 Src NI=40 Src Router=40 Dest NI=98 Dest Router=34 Set Time=291500 Width=16 ]
ControlFlit_ID=3393 [flit:: PacketId=177 Id=0 Type=3 Size=1 Vnet=0 VC=1 Src NI=1 Src Router=1 Dest NI=101 Dest Router=37 Set Time=294500 Width=16 ]
DataFlit_ID=3394 [flit:: PacketId=178 Id=0 Type=0 Size=5 Vnet=2 VC=10 Src NI=53 Src Router=53 Dest NI=64 Dest Router=0 Set Time=294500 Width=16 ]
Flit_ID=3395 [flit:: PacketId=178 Id=1 Type=1 Size=5 Vnet=2 VC=10 Src NI=53 Src Router=53 Dest NI=64 Dest Router=0 Set Time=294500 Width=16 ]
Flit_ID=3396 [flit:: PacketId=178 Id=2 Type=1 Size=5 Vnet=2 VC=10 Src NI=53 Src Router=53 Dest NI=64 Dest Router=0 Set Time=294500 Width=16 ]
Flit_ID=3397 [flit:: PacketId=178 Id=3 Type=1 Size=5 Vnet=2 VC=10 Src NI=53 Src Router=53 Dest NI=64 Dest Router=0 Set Time=294500 Width=16 ]
Flit_ID=3398 [flit:: PacketId=178 Id=4 Type=2 Size=5 Vnet=2 VC=10 Src NI=53 Src Router=53 Dest NI=64 Dest Router=0 Set Time=294500 Width=16 ]
ControlFlit_ID=3409 [flit:: PacketId=179 Id=0 Type=3 Size=1 Vnet=1 VC=6 Src NI=45 Src Router=45 Dest NI=109 Dest Router=45 Set Time=295500 Width=16 ]
DataFlit_ID=3410 [flit:: PacketId=180 Id=0 Type=0 Size=5 Vnet=2 VC=10 Src NI=17 Src Router=17 Dest NI=96 Dest Router=32 Set Time=295500 Width=16 ]
Flit_ID=3411 [flit:: PacketId=180 Id=1 Type=1 Size=5 Vnet=2 VC=10 Src NI=17 Src Router=17 Dest NI=96 Dest Router=32 Set Time=295500 Width=16 ]
Flit_ID=3412 [flit:: PacketId=180 Id=2 Type=1 Size=5 Vnet=2 VC=10 Src NI=17 Src Router=17 Dest NI=96 Dest Router=32 Set Time=295500 Width=16 ]
Flit_ID=3413 [flit:: PacketId=180 Id=3 Type=1 Size=5 Vnet=2 VC=10 Src NI=17 Src Router=17 Dest NI=96 Dest Router=32 Set Time=295500 Width=16 ]
Flit_ID=3414 [flit:: PacketId=180 Id=4 Type=2 Size=5 Vnet=2 VC=10 Src NI=17 Src Router=17 Dest NI=96 Dest Router=32 Set Time=295500 Width=16 ]
ControlFlit_ID=3415 [flit:: PacketId=181 Id=0 Type=3 Size=1 Vnet=0 VC=1 Src NI=11 Src Router=11 Dest NI=72 Dest Router=8 Set Time=295500 Width=16 ]
DataFlit_ID=3416 [flit:: PacketId=182 Id=0 Type=0 Size=5 Vnet=2 VC=8 Src NI=6 Src Router=6 Dest NI=76 Dest Router=12 Set Time=295500 Width=16 ]
Flit_ID=3417 [flit:: PacketId=182 Id=1 Type=1 Size=5 Vnet=2 VC=8 Src NI=6 Src Router=6 Dest NI=76 Dest Router=12 Set Time=295500 Width=16 ]
Flit_ID=3418 [flit:: PacketId=182 Id=2 Type=1 Size=5 Vnet=2 VC=8 Src NI=6 Src Router=6 Dest NI=76 Dest Router=12 Set Time=295500 Width=16 ]
Flit_ID=3419 [flit:: PacketId=182 Id=3 Type=1 Size=5 Vnet=2 VC=8 Src NI=6 Src Router=6 Dest NI=76 Dest Router=12 Set Time=295500 Width=16 ]
Flit_ID=3420 [flit:: PacketId=182 Id=4 Type=2 Size=5 Vnet=2 VC=8 Src NI=6 Src Router=6 Dest NI=76 Dest Router=12 Set Time=295500 Width=16 ]
DataFlit_ID=3435 [flit:: PacketId=183 Id=0 Type=0 Size=5 Vnet=2 VC=8 Src NI=37 Src Router=37 Dest NI=73 Dest Router=9 Set Time=296500 Width=16 ]
Flit_ID=3436 [flit:: PacketId=183 Id=1 Type=1 Size=5 Vnet=2 VC=8 Src NI=37 Src Router=37 Dest NI=73 Dest Router=9 Set Time=296500 Width=16 ]
Flit_ID=3437 [flit:: PacketId=183 Id=2 Type=1 Size=5 Vnet=2 VC=8 Src NI=37 Src Router=37 Dest NI=73 Dest Router=9 Set Time=296500 Width=16 ]
Flit_ID=3438 [flit:: PacketId=183 Id=3 Type=1 Size=5 Vnet=2 VC=8 Src NI=37 Src Router=37 Dest NI=73 Dest Router=9 Set Time=296500 Width=16 ]
Flit_ID=3439 [flit:: PacketId=183 Id=4 Type=2 Size=5 Vnet=2 VC=8 Src NI=37 Src Router=37 Dest NI=73 Dest Router=9 Set Time=296500 Width=16 ]
ControlFlit_ID=3440 [flit:: PacketId=184 Id=0 Type=3 Size=1 Vnet=0 VC=0 Src NI=61 Src Router=61 Dest NI=91 Dest Router=27 Set Time=296500 Width=16 ]
ControlFlit_ID=3461 [flit:: PacketId=185 Id=0 Type=3 Size=1 Vnet=0 VC=0 Src NI=49 Src Router=49 Dest NI=102 Dest Router=38 Set Time=297500 Width=16 ]
ControlFlit_ID=3485 [flit:: PacketId=186 Id=0 Type=3 Size=1 Vnet=0 VC=1 Src NI=40 Src Router=40 Dest NI=111 Dest Router=47 Set Time=298500 Width=16 ]
DataFlit_ID=3499 [flit:: PacketId=187 Id=0 Type=0 Size=5 Vnet=2 VC=11 Src NI=53 Src Router=53 Dest NI=76 Dest Router=12 Set Time=299500 Width=16 ]
Flit_ID=3500 [flit:: PacketId=187 Id=1 Type=1 Size=5 Vnet=2 VC=11 Src NI=53 Src Router=53 Dest NI=76 Dest Router=12 Set Time=299500 Width=16 ]
Flit_ID=3501 [flit:: PacketId=187 Id=2 Type=1 Size=5 Vnet=2 VC=11 Src NI=53 Src Router=53 Dest NI=76 Dest Router=12 Set Time=299500 Width=16 ]
Flit_ID=3502 [flit:: PacketId=187 Id=3 Type=1 Size=5 Vnet=2 VC=11 Src NI=53 Src Router=53 Dest NI=76 Dest Router=12 Set Time=299500 Width=16 ]
Flit_ID=3503 [flit:: PacketId=187 Id=4 Type=2 Size=5 Vnet=2 VC=11 Src NI=53 Src Router=53 Dest NI=76 Dest Router=12 Set Time=299500 Width=16 ]
ControlFlit_ID=3568 [flit:: PacketId=188 Id=0 Type=3 Size=1 Vnet=0 VC=2 Src NI=1 Src Router=1 Dest NI=118 Dest Router=54 Set Time=301500 Width=16 ]
DataFlit_ID=3614 [flit:: PacketId=189 Id=0 Type=0 Size=5 Vnet=2 VC=9 Src NI=6 Src Router=6 Dest NI=99 Dest Router=35 Set Time=303500 Width=16 ]
Flit_ID=3615 [flit:: PacketId=189 Id=1 Type=1 Size=5 Vnet=2 VC=9 Src NI=6 Src Router=6 Dest NI=99 Dest Router=35 Set Time=303500 Width=16 ]
Flit_ID=3616 [flit:: PacketId=189 Id=2 Type=1 Size=5 Vnet=2 VC=9 Src NI=6 Src Router=6 Dest NI=99 Dest Router=35 Set Time=303500 Width=16 ]
Flit_ID=3617 [flit:: PacketId=189 Id=3 Type=1 Size=5 Vnet=2 VC=9 Src NI=6 Src Router=6 Dest NI=99 Dest Router=35 Set Time=303500 Width=16 ]
Flit_ID=3618 [flit:: PacketId=189 Id=4 Type=2 Size=5 Vnet=2 VC=9 Src NI=6 Src Router=6 Dest NI=99 Dest Router=35 Set Time=303500 Width=16 ]
ControlFlit_ID=3640 [flit:: PacketId=190 Id=0 Type=3 Size=1 Vnet=0 VC=1 Src NI=9 Src Router=9 Dest NI=104 Dest Router=40 Set Time=304500 Width=16 ]
ControlFlit_ID=3641 [flit:: PacketId=191 Id=0 Type=3 Size=1 Vnet=1 VC=6 Src NI=32 Src Router=32 Dest NI=73 Dest Router=9 Set Time=304500 Width=16 ]
DataFlit_ID=3688 [flit:: PacketId=192 Id=0 Type=0 Size=5 Vnet=2 VC=9 Src NI=16 Src Router=16 Dest NI=116 Dest Router=52 Set Time=306500 Width=16 ]
Flit_ID=3689 [flit:: PacketId=192 Id=1 Type=1 Size=5 Vnet=2 VC=9 Src NI=16 Src Router=16 Dest NI=116 Dest Router=52 Set Time=306500 Width=16 ]
Flit_ID=3690 [flit:: PacketId=192 Id=2 Type=1 Size=5 Vnet=2 VC=9 Src NI=16 Src Router=16 Dest NI=116 Dest Router=52 Set Time=306500 Width=16 ]
Flit_ID=3691 [flit:: PacketId=192 Id=3 Type=1 Size=5 Vnet=2 VC=9 Src NI=16 Src Router=16 Dest NI=116 Dest Router=52 Set Time=306500 Width=16 ]
Flit_ID=3692 [flit:: PacketId=192 Id=4 Type=2 Size=5 Vnet=2 VC=9 Src NI=16 Src Router=16 Dest NI=116 Dest Router=52 Set Time=306500 Width=16 ]
DataFlit_ID=3715 [flit:: PacketId=193 Id=0 Type=0 Size=5 Vnet=2 VC=9 Src NI=33 Src Router=33 Dest NI=101 Dest Router=37 Set Time=307500 Width=16 ]
Flit_ID=3716 [flit:: PacketId=193 Id=1 Type=1 Size=5 Vnet=2 VC=9 Src NI=33 Src Router=33 Dest NI=101 Dest Router=37 Set Time=307500 Width=16 ]
Flit_ID=3717 [flit:: PacketId=193 Id=2 Type=1 Size=5 Vnet=2 VC=9 Src NI=33 Src Router=33 Dest NI=101 Dest Router=37 Set Time=307500 Width=16 ]
Flit_ID=3718 [flit:: PacketId=193 Id=3 Type=1 Size=5 Vnet=2 VC=9 Src NI=33 Src Router=33 Dest NI=101 Dest Router=37 Set Time=307500 Width=16 ]
Flit_ID=3719 [flit:: PacketId=193 Id=4 Type=2 Size=5 Vnet=2 VC=9 Src NI=33 Src Router=33 Dest NI=101 Dest Router=37 Set Time=307500 Width=16 ]
DataFlit_ID=3720 [flit:: PacketId=194 Id=0 Type=0 Size=5 Vnet=2 VC=9 Src NI=15 Src Router=15 Dest NI=95 Dest Router=31 Set Time=307500 Width=16 ]
Flit_ID=3721 [flit:: PacketId=194 Id=1 Type=1 Size=5 Vnet=2 VC=9 Src NI=15 Src Router=15 Dest NI=95 Dest Router=31 Set Time=307500 Width=16 ]
Flit_ID=3722 [flit:: PacketId=194 Id=2 Type=1 Size=5 Vnet=2 VC=9 Src NI=15 Src Router=15 Dest NI=95 Dest Router=31 Set Time=307500 Width=16 ]
Flit_ID=3723 [flit:: PacketId=194 Id=3 Type=1 Size=5 Vnet=2 VC=9 Src NI=15 Src Router=15 Dest NI=95 Dest Router=31 Set Time=307500 Width=16 ]
Flit_ID=3724 [flit:: PacketId=194 Id=4 Type=2 Size=5 Vnet=2 VC=9 Src NI=15 Src Router=15 Dest NI=95 Dest Router=31 Set Time=307500 Width=16 ]
ControlFlit_ID=3747 [flit:: PacketId=195 Id=0 Type=3 Size=1 Vnet=1 VC=4 Src NI=42 Src Router=42 Dest NI=92 Dest Router=28 Set Time=308500 Width=16 ]
ControlFlit_ID=3885 [flit:: PacketId=196 Id=0 Type=3 Size=1 Vnet=1 VC=4 Src NI=12 Src Router=12 Dest NI=82 Dest Router=18 Set Time=316500 Width=16 ]
ControlFlit_ID=3891 [flit:: PacketId=197 Id=0 Type=3 Size=1 Vnet=0 VC=1 Src NI=43 Src Router=43 Dest NI=84 Dest Router=20 Set Time=317500 Width=16 ]
ControlFlit_ID=3892 [flit:: PacketId=198 Id=0 Type=3 Size=1 Vnet=1 VC=4 Src NI=34 Src Router=34 Dest NI=117 Dest Router=53 Set Time=317500 Width=16 ]
ControlFlit_ID=3898 [flit:: PacketId=199 Id=0 Type=3 Size=1 Vnet=0 VC=1 Src NI=12 Src Router=12 Dest NI=112 Dest Router=48 Set Time=318500 Width=16 ]
DataFlit_ID=3908 [flit:: PacketId=200 Id=0 Type=0 Size=5 Vnet=2 VC=10 Src NI=32 Src Router=32 Dest NI=69 Dest Router=5 Set Time=320500 Width=16 ]
Flit_ID=3909 [flit:: PacketId=200 Id=1 Type=1 Size=5 Vnet=2 VC=10 Src NI=32 Src Router=32 Dest NI=69 Dest Router=5 Set Time=320500 Width=16 ]
Flit_ID=3910 [flit:: PacketId=200 Id=2 Type=1 Size=5 Vnet=2 VC=10 Src NI=32 Src Router=32 Dest NI=69 Dest Router=5 Set Time=320500 Width=16 ]
Flit_ID=3911 [flit:: PacketId=200 Id=3 Type=1 Size=5 Vnet=2 VC=10 Src NI=32 Src Router=32 Dest NI=69 Dest Router=5 Set Time=320500 Width=16 ]
Flit_ID=3912 [flit:: PacketId=200 Id=4 Type=2 Size=5 Vnet=2 VC=10 Src NI=32 Src Router=32 Dest NI=69 Dest Router=5 Set Time=320500 Width=16 ]
ControlFlit_ID=3913 [flit:: PacketId=201 Id=0 Type=3 Size=1 Vnet=1 VC=5 Src NI=47 Src Router=47 Dest NI=69 Dest Router=5 Set Time=320500 Width=16 ]
ControlFlit_ID=3920 [flit:: PacketId=202 Id=0 Type=3 Size=1 Vnet=0 VC=1 Src NI=37 Src Router=37 Dest NI=104 Dest Router=40 Set Time=321500 Width=16 ]
DataFlit_ID=3921 [flit:: PacketId=203 Id=0 Type=0 Size=5 Vnet=2 VC=9 Src NI=36 Src Router=36 Dest NI=126 Dest Router=62 Set Time=321500 Width=16 ]
Flit_ID=3922 [flit:: PacketId=203 Id=1 Type=1 Size=5 Vnet=2 VC=9 Src NI=36 Src Router=36 Dest NI=126 Dest Router=62 Set Time=321500 Width=16 ]
Flit_ID=3923 [flit:: PacketId=203 Id=2 Type=1 Size=5 Vnet=2 VC=9 Src NI=36 Src Router=36 Dest NI=126 Dest Router=62 Set Time=321500 Width=16 ]
Flit_ID=3924 [flit:: PacketId=203 Id=3 Type=1 Size=5 Vnet=2 VC=9 Src NI=36 Src Router=36 Dest NI=126 Dest Router=62 Set Time=321500 Width=16 ]
Flit_ID=3925 [flit:: PacketId=203 Id=4 Type=2 Size=5 Vnet=2 VC=9 Src NI=36 Src Router=36 Dest NI=126 Dest Router=62 Set Time=321500 Width=16 ]
ControlFlit_ID=3935 [flit:: PacketId=204 Id=0 Type=3 Size=1 Vnet=0 VC=0 Src NI=3 Src Router=3 Dest NI=89 Dest Router=25 Set Time=322500 Width=16 ]
ControlFlit_ID=3963 [flit:: PacketId=205 Id=0 Type=3 Size=1 Vnet=0 VC=0 Src NI=58 Src Router=58 Dest NI=93 Dest Router=29 Set Time=324500 Width=16 ]
DataFlit_ID=4024 [flit:: PacketId=206 Id=0 Type=0 Size=5 Vnet=2 VC=9 Src NI=14 Src Router=14 Dest NI=97 Dest Router=33 Set Time=328500 Width=16 ]
Flit_ID=4025 [flit:: PacketId=206 Id=1 Type=1 Size=5 Vnet=2 VC=9 Src NI=14 Src Router=14 Dest NI=97 Dest Router=33 Set Time=328500 Width=16 ]
Flit_ID=4026 [flit:: PacketId=206 Id=2 Type=1 Size=5 Vnet=2 VC=9 Src NI=14 Src Router=14 Dest NI=97 Dest Router=33 Set Time=328500 Width=16 ]
Flit_ID=4027 [flit:: PacketId=206 Id=3 Type=1 Size=5 Vnet=2 VC=9 Src NI=14 Src Router=14 Dest NI=97 Dest Router=33 Set Time=328500 Width=16 ]
Flit_ID=4028 [flit:: PacketId=206 Id=4 Type=2 Size=5 Vnet=2 VC=9 Src NI=14 Src Router=14 Dest NI=97 Dest Router=33 Set Time=328500 Width=16 ]
DataFlit_ID=4029 [flit:: PacketId=207 Id=0 Type=0 Size=5 Vnet=2 VC=11 Src NI=17 Src Router=17 Dest NI=68 Dest Router=4 Set Time=328500 Width=16 ]
Flit_ID=4030 [flit:: PacketId=207 Id=1 Type=1 Size=5 Vnet=2 VC=11 Src NI=17 Src Router=17 Dest NI=68 Dest Router=4 Set Time=328500 Width=16 ]
Flit_ID=4031 [flit:: PacketId=207 Id=2 Type=1 Size=5 Vnet=2 VC=11 Src NI=17 Src Router=17 Dest NI=68 Dest Router=4 Set Time=328500 Width=16 ]
Flit_ID=4032 [flit:: PacketId=207 Id=3 Type=1 Size=5 Vnet=2 VC=11 Src NI=17 Src Router=17 Dest NI=68 Dest Router=4 Set Time=328500 Width=16 ]
Flit_ID=4033 [flit:: PacketId=207 Id=4 Type=2 Size=5 Vnet=2 VC=11 Src NI=17 Src Router=17 Dest NI=68 Dest Router=4 Set Time=328500 Width=16 ]
DataFlit_ID=4094 [flit:: PacketId=208 Id=0 Type=0 Size=5 Vnet=2 VC=8 Src NI=8 Src Router=8 Dest NI=120 Dest Router=56 Set Time=332500 Width=16 ]
Flit_ID=4095 [flit:: PacketId=208 Id=1 Type=1 Size=5 Vnet=2 VC=8 Src NI=8 Src Router=8 Dest NI=120 Dest Router=56 Set Time=332500 Width=16 ]
Flit_ID=4096 [flit:: PacketId=208 Id=2 Type=1 Size=5 Vnet=2 VC=8 Src NI=8 Src Router=8 Dest NI=120 Dest Router=56 Set Time=332500 Width=16 ]
Flit_ID=4097 [flit:: PacketId=208 Id=3 Type=1 Size=5 Vnet=2 VC=8 Src NI=8 Src Router=8 Dest NI=120 Dest Router=56 Set Time=332500 Width=16 ]
Flit_ID=4098 [flit:: PacketId=208 Id=4 Type=2 Size=5 Vnet=2 VC=8 Src NI=8 Src Router=8 Dest NI=120 Dest Router=56 Set Time=332500 Width=16 ]
DataFlit_ID=4099 [flit:: PacketId=209 Id=0 Type=0 Size=5 Vnet=2 VC=9 Src NI=61 Src Router=61 Dest NI=90 Dest Router=26 Set Time=332500 Width=16 ]
Flit_ID=4100 [flit:: PacketId=209 Id=1 Type=1 Size=5 Vnet=2 VC=9 Src NI=61 Src Router=61 Dest NI=90 Dest Router=26 Set Time=332500 Width=16 ]
Flit_ID=4101 [flit:: PacketId=209 Id=2 Type=1 Size=5 Vnet=2 VC=9 Src NI=61 Src Router=61 Dest NI=90 Dest Router=26 Set Time=332500 Width=16 ]
Flit_ID=4102 [flit:: PacketId=209 Id=3 Type=1 Size=5 Vnet=2 VC=9 Src NI=61 Src Router=61 Dest NI=90 Dest Router=26 Set Time=332500 Width=16 ]
Flit_ID=4103 [flit:: PacketId=209 Id=4 Type=2 Size=5 Vnet=2 VC=9 Src NI=61 Src Router=61 Dest NI=90 Dest Router=26 Set Time=332500 Width=16 ]
ControlFlit_ID=4136 [flit:: PacketId=210 Id=0 Type=3 Size=1 Vnet=0 VC=1 Src NI=10 Src Router=10 Dest NI=87 Dest Router=23 Set Time=334500 Width=16 ]
ControlFlit_ID=4156 [flit:: PacketId=211 Id=0 Type=3 Size=1 Vnet=1 VC=5 Src NI=40 Src Router=40 Dest NI=91 Dest Router=27 Set Time=335500 Width=16 ]
DataFlit_ID=4215 [flit:: PacketId=212 Id=0 Type=0 Size=5 Vnet=2 VC=10 Src NI=14 Src Router=14 Dest NI=80 Dest Router=16 Set Time=338500 Width=16 ]
Flit_ID=4216 [flit:: PacketId=212 Id=1 Type=1 Size=5 Vnet=2 VC=10 Src NI=14 Src Router=14 Dest NI=80 Dest Router=16 Set Time=338500 Width=16 ]
Flit_ID=4217 [flit:: PacketId=212 Id=2 Type=1 Size=5 Vnet=2 VC=10 Src NI=14 Src Router=14 Dest NI=80 Dest Router=16 Set Time=338500 Width=16 ]
Flit_ID=4218 [flit:: PacketId=212 Id=3 Type=1 Size=5 Vnet=2 VC=10 Src NI=14 Src Router=14 Dest NI=80 Dest Router=16 Set Time=338500 Width=16 ]
Flit_ID=4219 [flit:: PacketId=212 Id=4 Type=2 Size=5 Vnet=2 VC=10 Src NI=14 Src Router=14 Dest NI=80 Dest Router=16 Set Time=338500 Width=16 ]
ControlFlit_ID=4237 [flit:: PacketId=213 Id=0 Type=3 Size=1 Vnet=0 VC=1 Src NI=14 Src Router=14 Dest NI=78 Dest Router=14 Set Time=339500 Width=16 ]
ControlFlit_ID=4255 [flit:: PacketId=214 Id=0 Type=3 Size=1 Vnet=1 VC=6 Src NI=10 Src Router=10 Dest NI=97 Dest Router=33 Set Time=340500 Width=16 ]
ControlFlit_ID=4310 [flit:: PacketId=215 Id=0 Type=3 Size=1 Vnet=1 VC=6 Src NI=56 Src Router=56 Dest NI=118 Dest Router=54 Set Time=345500 Width=16 ]
ControlFlit_ID=4329 [flit:: PacketId=216 Id=0 Type=3 Size=1 Vnet=1 VC=5 Src NI=26 Src Router=26 Dest NI=80 Dest Router=16 Set Time=348500 Width=16 ]
DataFlit_ID=4340 [flit:: PacketId=217 Id=0 Type=0 Size=5 Vnet=2 VC=8 Src NI=50 Src Router=50 Dest NI=102 Dest Router=38 Set Time=351500 Width=16 ]
Flit_ID=4341 [flit:: PacketId=217 Id=1 Type=1 Size=5 Vnet=2 VC=8 Src NI=50 Src Router=50 Dest NI=102 Dest Router=38 Set Time=351500 Width=16 ]
Flit_ID=4342 [flit:: PacketId=217 Id=2 Type=1 Size=5 Vnet=2 VC=8 Src NI=50 Src Router=50 Dest NI=102 Dest Router=38 Set Time=351500 Width=16 ]
Flit_ID=4343 [flit:: PacketId=217 Id=3 Type=1 Size=5 Vnet=2 VC=8 Src NI=50 Src Router=50 Dest NI=102 Dest Router=38 Set Time=351500 Width=16 ]
Flit_ID=4344 [flit:: PacketId=217 Id=4 Type=2 Size=5 Vnet=2 VC=8 Src NI=50 Src Router=50 Dest NI=102 Dest Router=38 Set Time=351500 Width=16 ]
DataFlit_ID=4345 [flit:: PacketId=218 Id=0 Type=0 Size=5 Vnet=2 VC=9 Src NI=46 Src Router=46 Dest NI=126 Dest Router=62 Set Time=351500 Width=16 ]
Flit_ID=4346 [flit:: PacketId=218 Id=1 Type=1 Size=5 Vnet=2 VC=9 Src NI=46 Src Router=46 Dest NI=126 Dest Router=62 Set Time=351500 Width=16 ]
Flit_ID=4347 [flit:: PacketId=218 Id=2 Type=1 Size=5 Vnet=2 VC=9 Src NI=46 Src Router=46 Dest NI=126 Dest Router=62 Set Time=351500 Width=16 ]
Flit_ID=4348 [flit:: PacketId=218 Id=3 Type=1 Size=5 Vnet=2 VC=9 Src NI=46 Src Router=46 Dest NI=126 Dest Router=62 Set Time=351500 Width=16 ]
Flit_ID=4349 [flit:: PacketId=218 Id=4 Type=2 Size=5 Vnet=2 VC=9 Src NI=46 Src Router=46 Dest NI=126 Dest Router=62 Set Time=351500 Width=16 ]
ControlFlit_ID=4350 [flit:: PacketId=219 Id=0 Type=3 Size=1 Vnet=0 VC=3 Src NI=19 Src Router=19 Dest NI=119 Dest Router=55 Set Time=351500 Width=16 ]
ControlFlit_ID=4351 [flit:: PacketId=220 Id=0 Type=3 Size=1 Vnet=0 VC=0 Src NI=0 Src Router=0 Dest NI=90 Dest Router=26 Set Time=351500 Width=16 ]
ControlFlit_ID=4411 [flit:: PacketId=221 Id=0 Type=3 Size=1 Vnet=1 VC=4 Src NI=25 Src Router=25 Dest NI=119 Dest Router=55 Set Time=357500 Width=16 ]
ControlFlit_ID=4421 [flit:: PacketId=222 Id=0 Type=3 Size=1 Vnet=1 VC=4 Src NI=31 Src Router=31 Dest NI=91 Dest Router=27 Set Time=358500 Width=16 ]
ControlFlit_ID=4442 [flit:: PacketId=223 Id=0 Type=3 Size=1 Vnet=1 VC=5 Src NI=49 Src Router=49 Dest NI=66 Dest Router=2 Set Time=361500 Width=16 ]
ControlFlit_ID=4461 [flit:: PacketId=224 Id=0 Type=3 Size=1 Vnet=0 VC=2 Src NI=14 Src Router=14 Dest NI=117 Dest Router=53 Set Time=368500 Width=16 ]
ControlFlit_ID=4462 [flit:: PacketId=225 Id=0 Type=3 Size=1 Vnet=0 VC=0 Src NI=20 Src Router=20 Dest NI=77 Dest Router=13 Set Time=368500 Width=16 ]
ControlFlit_ID=4469 [flit:: PacketId=226 Id=0 Type=3 Size=1 Vnet=0 VC=1 Src NI=36 Src Router=36 Dest NI=108 Dest Router=44 Set Time=370500 Width=16 ]
ControlFlit_ID=4481 [flit:: PacketId=227 Id=0 Type=3 Size=1 Vnet=1 VC=4 Src NI=44 Src Router=44 Dest NI=99 Dest Router=35 Set Time=376500 Width=16 ]
DataFlit_ID=4483 [flit:: PacketId=228 Id=0 Type=0 Size=5 Vnet=2 VC=9 Src NI=49 Src Router=49 Dest NI=84 Dest Router=20 Set Time=377500 Width=16 ]
Flit_ID=4484 [flit:: PacketId=228 Id=1 Type=1 Size=5 Vnet=2 VC=9 Src NI=49 Src Router=49 Dest NI=84 Dest Router=20 Set Time=377500 Width=16 ]
Flit_ID=4485 [flit:: PacketId=228 Id=2 Type=1 Size=5 Vnet=2 VC=9 Src NI=49 Src Router=49 Dest NI=84 Dest Router=20 Set Time=377500 Width=16 ]
Flit_ID=4486 [flit:: PacketId=228 Id=3 Type=1 Size=5 Vnet=2 VC=9 Src NI=49 Src Router=49 Dest NI=84 Dest Router=20 Set Time=377500 Width=16 ]
Flit_ID=4487 [flit:: PacketId=228 Id=4 Type=2 Size=5 Vnet=2 VC=9 Src NI=49 Src Router=49 Dest NI=84 Dest Router=20 Set Time=377500 Width=16 ]
ControlFlit_ID=4490 [flit:: PacketId=229 Id=0 Type=3 Size=1 Vnet=0 VC=2 Src NI=12 Src Router=12 Dest NI=106 Dest Router=42 Set Time=378500 Width=16 ]
ControlFlit_ID=4491 [flit:: PacketId=230 Id=0 Type=3 Size=1 Vnet=0 VC=1 Src NI=45 Src Router=45 Dest NI=112 Dest Router=48 Set Time=378500 Width=16 ]
ControlFlit_ID=4551 [flit:: PacketId=231 Id=0 Type=3 Size=1 Vnet=1 VC=5 Src NI=34 Src Router=34 Dest NI=72 Dest Router=8 Set Time=387500 Width=16 ]
DataFlit_ID=4552 [flit:: PacketId=232 Id=0 Type=0 Size=5 Vnet=2 VC=10 Src NI=33 Src Router=33 Dest NI=89 Dest Router=25 Set Time=387500 Width=16 ]
Flit_ID=4553 [flit:: PacketId=232 Id=1 Type=1 Size=5 Vnet=2 VC=10 Src NI=33 Src Router=33 Dest NI=89 Dest Router=25 Set Time=387500 Width=16 ]
Flit_ID=4554 [flit:: PacketId=232 Id=2 Type=1 Size=5 Vnet=2 VC=10 Src NI=33 Src Router=33 Dest NI=89 Dest Router=25 Set Time=387500 Width=16 ]
Flit_ID=4555 [flit:: PacketId=232 Id=3 Type=1 Size=5 Vnet=2 VC=10 Src NI=33 Src Router=33 Dest NI=89 Dest Router=25 Set Time=387500 Width=16 ]
Flit_ID=4556 [flit:: PacketId=232 Id=4 Type=2 Size=5 Vnet=2 VC=10 Src NI=33 Src Router=33 Dest NI=89 Dest Router=25 Set Time=387500 Width=16 ]
ControlFlit_ID=4557 [flit:: PacketId=233 Id=0 Type=3 Size=1 Vnet=1 VC=4 Src NI=19 Src Router=19 Dest NI=75 Dest Router=11 Set Time=387500 Width=16 ]
ControlFlit_ID=4558 [flit:: PacketId=234 Id=0 Type=3 Size=1 Vnet=0 VC=2 Src NI=5 Src Router=5 Dest NI=80 Dest Router=16 Set Time=387500 Width=16 ]
DataFlit_ID=4565 [flit:: PacketId=235 Id=0 Type=0 Size=5 Vnet=2 VC=9 Src NI=2 Src Router=2 Dest NI=72 Dest Router=8 Set Time=388500 Width=16 ]
Flit_ID=4566 [flit:: PacketId=235 Id=1 Type=1 Size=5 Vnet=2 VC=9 Src NI=2 Src Router=2 Dest NI=72 Dest Router=8 Set Time=388500 Width=16 ]
[...]
Flit_ID=4654 [flit:: PacketId=242 Id=1 Type=1 Size=5 Vnet=2 VC=9 Src NI=41 Src Router=41 Dest NI=97 Dest Router=33 Set Time=400500 Width=16 ]
Flit_ID=4655 [flit:: PacketId=242 Id=2 Type=1 Size=5 Vnet=2 VC=9 Src NI=41 Src Router=41 Dest NI=97 Dest Router=33 Set Time=400500 Width=16 ]
Flit_ID=4656 [flit:: PacketId=242 Id=3 Type=1 Size=5 Vnet=2 VC=9 Src NI=41 Src Router=41 Dest NI=97 Dest Router=33 Set Time=400500 Width=16 ]
Flit_ID=4657 [flit:: PacketId=242 Id=4 Type=2 Size=5 Vnet=2 VC=9 Src NI=41 Src Router=41 Dest NI=97 Dest Router=33 Set Time=400500 Width=16 ]
DataFlit_ID=4662 [flit:: PacketId=243 Id=0 Type=0 Size=5 Vnet=2 VC=11 Src NI=32 Src Router=32 Dest NI=79 Dest Router=15 Set Time=401500 Width=16 ]
Flit_ID=4663 [flit:: PacketId=243 Id=1 Type=1 Size=5 Vnet=2 VC=11 Src NI=32 Src Router=32 Dest NI=79 Dest Router=15 Set Time=401500 Width=16 ]
Flit_ID=4664 [flit:: PacketId=243 Id=2 Type=1 Size=5 Vnet=2 VC=11 Src NI=32 Src Router=32 Dest NI=79 Dest Router=15 Set Time=401500 Width=16 ]
Flit_ID=4665 [flit:: PacketId=243 Id=3 Type=1 Size=5 Vnet=2 VC=11 Src NI=32 Src Router=32 Dest NI=79 Dest Router=15 Set Time=401500 Width=16 ]
Flit_ID=4666 [flit:: PacketId=243 Id=4 Type=2 Size=5 Vnet=2 VC=11 Src NI=32 Src Router=32 Dest NI=79 Dest Router=15 Set Time=401500 Width=16 ]
ControlFlit_ID=4676 [flit:: PacketId=244 Id=0 Type=3 Size=1 Vnet=0 VC=1 Src NI=57 Src Router=57 Dest NI=80 Dest Router=16 Set Time=402500 Width=16 ]
ControlFlit_ID=4690 [flit:: PacketId=245 Id=0 Type=3 Size=1 Vnet=0 VC=0 Src NI=16 Src Router=16 Dest NI=100 Dest Router=36 Set Time=403500 Width=16 ]
ControlFlit_ID=4691 [flit:: PacketId=246 Id=0 Type=3 Size=1 Vnet=1 VC=5 Src NI=14 Src Router=14 Dest NI=113 Dest Router=49 Set Time=403500 Width=16 ]
ControlFlit_ID=4800 [flit:: PacketId=247 Id=0 Type=3 Size=1 Vnet=1 VC=7 Src NI=53 Src Router=53 Dest NI=102 Dest Router=38 Set Time=412500 Width=16 ]
DataFlit_ID=4808 [flit:: PacketId=248 Id=0 Type=0 Size=5 Vnet=2 VC=8 Src NI=51 Src Router=51 Dest NI=100 Dest Router=36 Set Time=413500 Width=16 ]
Flit_ID=4809 [flit:: PacketId=248 Id=1 Type=1 Size=5 Vnet=2 VC=8 Src NI=51 Src Router=51 Dest NI=100 Dest Router=36 Set Time=413500 Width=16 ]
Flit_ID=4810 [flit:: PacketId=248 Id=2 Type=1 Size=5 Vnet=2 VC=8 Src NI=51 Src Router=51 Dest NI=100 Dest Router=36 Set Time=413500 Width=16 ]
Flit_ID=4811 [flit:: PacketId=248 Id=3 Type=1 Size=5 Vnet=2 VC=8 Src NI=51 Src Router=51 Dest NI=100 Dest Router=36 Set Time=413500 Width=16 ]
Flit_ID=4812 [flit:: PacketId=248 Id=4 Type=2 Size=5 Vnet=2 VC=8 Src NI=51 Src Router=51 Dest NI=100 Dest Router=36 Set Time=413500 Width=16 ]
DataFlit_ID=4851 [flit:: PacketId=249 Id=0 Type=0 Size=5 Vnet=2 VC=8 Src NI=35 Src Router=35 Dest NI=101 Dest Router=37 Set Time=422500 Width=16 ]
Flit_ID=4852 [flit:: PacketId=249 Id=1 Type=1 Size=5 Vnet=2 VC=8 Src NI=35 Src Router=35 Dest NI=101 Dest Router=37 Set Time=422500 Width=16 ]
Flit_ID=4853 [flit:: PacketId=249 Id=2 Type=1 Size=5 Vnet=2 VC=8 Src NI=35 Src Router=35 Dest NI=101 Dest Router=37 Set Time=422500 Width=16 ]
Flit_ID=4854 [flit:: PacketId=249 Id=3 Type=1 Size=5 Vnet=2 VC=8 Src NI=35 Src Router=35 Dest NI=101 Dest Router=37 Set Time=422500 Width=16 ]
Flit_ID=4855 [flit:: PacketId=249 Id=4 Type=2 Size=5 Vnet=2 VC=8 Src NI=35 Src Router=35 Dest NI=101 Dest Router=37 Set Time=422500 Width=16 ]
ControlFlit_ID=4860 [flit:: PacketId=250 Id=0 Type=3 Size=1 Vnet=1 VC=4 Src NI=35 Src Router=35 Dest NI=98 Dest Router=34 Set Time=424500 Width=16 ]
ControlFlit_ID=4866 [flit:: PacketId=251 Id=0 Type=3 Size=1 Vnet=1 VC=6 Src NI=5 Src Router=5 Dest NI=115 Dest Router=51 Set Time=425500 Width=16 ]
DataFlit_ID=4874 [flit:: PacketId=252 Id=0 Type=0 Size=5 Vnet=2 VC=9 Src NI=8 Src Router=8 Dest NI=73 Dest Router=9 Set Time=426500 Width=16 ]
Flit_ID=4875 [flit:: PacketId=252 Id=1 Type=1 Size=5 Vnet=2 VC=9 Src NI=8 Src Router=8 Dest NI=73 Dest Router=9 Set Time=426500 Width=16 ]
Flit_ID=4876 [flit:: PacketId=252 Id=2 Type=1 Size=5 Vnet=2 VC=9 Src NI=8 Src Router=8 Dest NI=73 Dest Router=9 Set Time=426500 Width=16 ]
Flit_ID=4877 [flit:: PacketId=252 Id=3 Type=1 Size=5 Vnet=2 VC=9 Src NI=8 Src Router=8 Dest NI=73 Dest Router=9 Set Time=426500 Width=16 ]
Flit_ID=4878 [flit:: PacketId=252 Id=4 Type=2 Size=5 Vnet=2 VC=9 Src NI=8 Src Router=8 Dest NI=73 Dest Router=9 Set Time=426500 Width=16 ]
ControlFlit_ID=4879 [flit:: PacketId=253 Id=0 Type=3 Size=1 Vnet=1 VC=5 Src NI=41 Src Router=41 Dest NI=80 Dest Router=16 Set Time=426500 Width=16 ]
ControlFlit_ID=4880 [flit:: PacketId=254 Id=0 Type=3 Size=1 Vnet=0 VC=1 Src NI=44 Src Router=44 Dest NI=104 Dest Router=40 Set Time=426500 Width=16 ]
ControlFlit_ID=4898 [flit:: PacketId=255 Id=0 Type=3 Size=1 Vnet=0 VC=3 Src NI=56 Src Router=56 Dest NI=105 Dest Router=41 Set Time=428500 Width=16 ]
DataFlit_ID=4908 [flit:: PacketId=256 Id=0 Type=0 Size=5 Vnet=2 VC=11 Src NI=54 Src Router=54 Dest NI=67 Dest Router=3 Set Time=429500 Width=16 ]
Flit_ID=4909 [flit:: PacketId=256 Id=1 Type=1 Size=5 Vnet=2 VC=11 Src NI=54 Src Router=54 Dest NI=67 Dest Router=3 Set Time=429500 Width=16 ]
Flit_ID=4910 [flit:: PacketId=256 Id=2 Type=1 Size=5 Vnet=2 VC=11 Src NI=54 Src Router=54 Dest NI=67 Dest Router=3 Set Time=429500 Width=16 ]
Flit_ID=4911 [flit:: PacketId=256 Id=3 Type=1 Size=5 Vnet=2 VC=11 Src NI=54 Src Router=54 Dest NI=67 Dest Router=3 Set Time=429500 Width=16 ]
Flit_ID=4912 [flit:: PacketId=256 Id=4 Type=2 Size=5 Vnet=2 VC=11 Src NI=54 Src Router=54 Dest NI=67 Dest Router=3 Set Time=429500 Width=16 ]
DataFlit_ID=4964 [flit:: PacketId=257 Id=0 Type=0 Size=5 Vnet=2 VC=10 Src NI=6 Src Router=6 Dest NI=82 Dest Router=18 Set Time=436500 Width=16 ]
Flit_ID=4965 [flit:: PacketId=257 Id=1 Type=1 Size=5 Vnet=2 VC=10 Src NI=6 Src Router=6 Dest NI=82 Dest Router=18 Set Time=436500 Width=16 ]
Flit_ID=4966 [flit:: PacketId=257 Id=2 Type=1 Size=5 Vnet=2 VC=10 Src NI=6 Src Router=6 Dest NI=82 Dest Router=18 Set Time=436500 Width=16 ]
Flit_ID=4967 [flit:: PacketId=257 Id=3 Type=1 Size=5 Vnet=2 VC=10 Src NI=6 Src Router=6 Dest NI=82 Dest Router=18 Set Time=436500 Width=16 ]
Flit_ID=4968 [flit:: PacketId=257 Id=4 Type=2 Size=5 Vnet=2 VC=10 Src NI=6 Src Router=6 Dest NI=82 Dest Router=18 Set Time=436500 Width=16 ]
DataFlit_ID=4975 [flit:: PacketId=258 Id=0 Type=0 Size=5 Vnet=2 VC=10 Src NI=52 Src Router=52 Dest NI=72 Dest Router=8 Set Time=437500 Width=16 ]
Flit_ID=4976 [flit:: PacketId=258 Id=1 Type=1 Size=5 Vnet=2 VC=10 Src NI=52 Src Router=52 Dest NI=72 Dest Router=8 Set Time=437500 Width=16 ]
Flit_ID=4977 [flit:: PacketId=258 Id=2 Type=1 Size=5 Vnet=2 VC=10 Src NI=52 Src Router=52 Dest NI=72 Dest Router=8 Set Time=437500 Width=16 ]
Flit_ID=4978 [flit:: PacketId=258 Id=3 Type=1 Size=5 Vnet=2 VC=10 Src NI=52 Src Router=52 Dest NI=72 Dest Router=8 Set Time=437500 Width=16 ]
Flit_ID=4979 [flit:: PacketId=258 Id=4 Type=2 Size=5 Vnet=2 VC=10 Src NI=52 Src Router=52 Dest NI=72 Dest Router=8 Set Time=437500 Width=16 ]
ControlFlit_ID=4980 [flit:: PacketId=259 Id=0 Type=3 Size=1 Vnet=0 VC=3 Src NI=12 Src Router=12 Dest NI=67 Dest Router=3 Set Time=437500 Width=16 ]
ControlFlit_ID=5003 [flit:: PacketId=260 Id=0 Type=3 Size=1 Vnet=0 VC=1 Src NI=58 Src Router=58 Dest NI=86 Dest Router=22 Set Time=439500 Width=16 ]
ControlFlit_ID=5020 [flit:: PacketId=261 Id=0 Type=3 Size=1 Vnet=0 VC=2 Src NI=24 Src Router=24 Dest NI=79 Dest Router=15 Set Time=440500 Width=16 ]
ControlFlit_ID=5053 [flit:: PacketId=262 Id=0 Type=3 Size=1 Vnet=1 VC=4 Src NI=13 Src Router=13 Dest NI=78 Dest Router=14 Set Time=442500 Width=16 ]
DataFlit_ID=5054 [flit:: PacketId=263 Id=0 Type=0 Size=5 Vnet=2 VC=9 Src NI=39 Src Router=39 Dest NI=78 Dest Router=14 Set Time=442500 Width=16 ]
Flit_ID=5055 [flit:: PacketId=263 Id=1 Type=1 Size=5 Vnet=2 VC=9 Src NI=39 Src Router=39 Dest NI=78 Dest Router=14 Set Time=442500 Width=16 ]
Flit_ID=5056 [flit:: PacketId=263 Id=2 Type=1 Size=5 Vnet=2 VC=9 Src NI=39 Src Router=39 Dest NI=78 Dest Router=14 Set Time=442500 Width=16 ]
Flit_ID=5057 [flit:: PacketId=263 Id=3 Type=1 Size=5 Vnet=2 VC=9 Src NI=39 Src Router=39 Dest NI=78 Dest Router=14 Set Time=442500 Width=16 ]
Flit_ID=5058 [flit:: PacketId=263 Id=4 Type=2 Size=5 Vnet=2 VC=9 Src NI=39 Src Router=39 Dest NI=78 Dest Router=14 Set Time=442500 Width=16 ]
ControlFlit_ID=5074 [flit:: PacketId=264 Id=0 Type=3 Size=1 Vnet=1 VC=6 Src NI=63 Src Router=63 Dest NI=72 Dest Router=8 Set Time=443500 Width=16 ]
ControlFlit_ID=5075 [flit:: PacketId=265 Id=0 Type=3 Size=1 Vnet=1 VC=5 Src NI=12 Src Router=12 Dest NI=75 Dest Router=11 Set Time=443500 Width=16 ]
DataFlit_ID=5128 [flit:: PacketId=266 Id=0 Type=0 Size=5 Vnet=2 VC=11 Src NI=19 Src Router=19 Dest NI=122 Dest Router=58 Set Time=446500 Width=16 ]
Flit_ID=5129 [flit:: PacketId=266 Id=1 Type=1 Size=5 Vnet=2 VC=11 Src NI=19 Src Router=19 Dest NI=122 Dest Router=58 Set Time=446500 Width=16 ]
Flit_ID=5130 [flit:: PacketId=266 Id=2 Type=1 Size=5 Vnet=2 VC=11 Src NI=19 Src Router=19 Dest NI=122 Dest Router=58 Set Time=446500 Width=16 ]
Flit_ID=5131 [flit:: PacketId=266 Id=3 Type=1 Size=5 Vnet=2 VC=11 Src NI=19 Src Router=19 Dest NI=122 Dest Router=58 Set Time=446500 Width=16 ]
Flit_ID=5132 [flit:: PacketId=266 Id=4 Type=2 Size=5 Vnet=2 VC=11 Src NI=19 Src Router=19 Dest NI=122 Dest Router=58 Set Time=446500 Width=16 ]
ControlFlit_ID=5148 [flit:: PacketId=267 Id=0 Type=3 Size=1 Vnet=0 VC=0 Src NI=19 Src Router=19 Dest NI=107 Dest Router=43 Set Time=447500 Width=16 ]
ControlFlit_ID=5149 [flit:: PacketId=268 Id=0 Type=3 Size=1 Vnet=0 VC=2 Src NI=18 Src Router=18 Dest NI=66 Dest Router=2 Set Time=447500 Width=16 ]
ControlFlit_ID=5167 [flit:: PacketId=269 Id=0 Type=3 Size=1 Vnet=0 VC=1 Src NI=23 Src Router=23 Dest NI=67 Dest Router=3 Set Time=448500 Width=16 ]
ControlFlit_ID=5186 [flit:: PacketId=270 Id=0 Type=3 Size=1 Vnet=0 VC=0 Src NI=52 Src Router=52 Dest NI=77 Dest Router=13 Set Time=449500 Width=16 ]
ControlFlit_ID=5187 [flit:: PacketId=271 Id=0 Type=3 Size=1 Vnet=1 VC=6 Src NI=0 Src Router=0 Dest NI=125 Dest Router=61 Set Time=449500 Width=16 ]
DataFlit_ID=5205 [flit:: PacketId=272 Id=0 Type=0 Size=5 Vnet=2 VC=9 Src NI=29 Src Router=29 Dest NI=89 Dest Router=25 Set Time=450500 Width=16 ]
Flit_ID=5206 [flit:: PacketId=272 Id=1 Type=1 Size=5 Vnet=2 VC=9 Src NI=29 Src Router=29 Dest NI=89 Dest Router=25 Set Time=450500 Width=16 ]
Flit_ID=5207 [flit:: PacketId=272 Id=2 Type=1 Size=5 Vnet=2 VC=9 Src NI=29 Src Router=29 Dest NI=89 Dest Router=25 Set Time=450500 Width=16 ]
Flit_ID=5208 [flit:: PacketId=272 Id=3 Type=1 Size=5 Vnet=2 VC=9 Src NI=29 Src Router=29 Dest NI=89 Dest Router=25 Set Time=450500 Width=16 ]
Flit_ID=5209 [flit:: PacketId=272 Id=4 Type=2 Size=5 Vnet=2 VC=9 Src NI=29 Src Router=29 Dest NI=89 Dest Router=25 Set Time=450500 Width=16 ]
ControlFlit_ID=5251 [flit:: PacketId=273 Id=0 Type=3 Size=1 Vnet=1 VC=6 Src NI=47 Src Router=47 Dest NI=84 Dest Router=20 Set Time=453500 Width=16 ]
ControlFlit_ID=5281 [flit:: PacketId=274 Id=0 Type=3 Size=1 Vnet=1 VC=7 Src NI=5 Src Router=5 Dest NI=127 Dest Router=63 Set Time=455500 Width=16 ]
DataFlit_ID=5312 [flit:: PacketId=275 Id=0 Type=0 Size=5 Vnet=2 VC=8 Src NI=4 Src Router=4 Dest NI=102 Dest Router=38 Set Time=458500 Width=16 ]
Flit_ID=5313 [flit:: PacketId=275 Id=1 Type=1 Size=5 Vnet=2 VC=8 Src NI=4 Src Router=4 Dest NI=102 Dest Router=38 Set Time=458500 Width=16 ]
Flit_ID=5314 [flit:: PacketId=275 Id=2 Type=1 Size=5 Vnet=2 VC=8 Src NI=4 Src Router=4 Dest NI=102 Dest Router=38 Set Time=458500 Width=16 ]
Flit_ID=5315 [flit:: PacketId=275 Id=3 Type=1 Size=5 Vnet=2 VC=8 Src NI=4 Src Router=4 Dest NI=102 Dest Router=38 Set Time=458500 Width=16 ]
Flit_ID=5316 [flit:: PacketId=275 Id=4 Type=2 Size=5 Vnet=2 VC=8 Src NI=4 Src Router=4 Dest NI=102 Dest Router=38 Set Time=458500 Width=16 ]
DataFlit_ID=5322 [flit:: PacketId=276 Id=0 Type=0 Size=5 Vnet=2 VC=9 Src NI=44 Src Router=44 Dest NI=77 Dest Router=13 Set Time=459500 Width=16 ]
Flit_ID=5323 [flit:: PacketId=276 Id=1 Type=1 Size=5 Vnet=2 VC=9 Src NI=44 Src Router=44 Dest NI=77 Dest Router=13 Set Time=459500 Width=16 ]
Flit_ID=5324 [flit:: PacketId=276 Id=2 Type=1 Size=5 Vnet=2 VC=9 Src NI=44 Src Router=44 Dest NI=77 Dest Router=13 Set Time=459500 Width=16 ]
Flit_ID=5325 [flit:: PacketId=276 Id=3 Type=1 Size=5 Vnet=2 VC=9 Src NI=44 Src Router=44 Dest NI=77 Dest Router=13 Set Time=459500 Width=16 ]
Flit_ID=5326 [flit:: PacketId=276 Id=4 Type=2 Size=5 Vnet=2 VC=9 Src NI=44 Src Router=44 Dest NI=77 Dest Router=13 Set Time=459500 Width=16 ]
DataFlit_ID=5327 [flit:: PacketId=277 Id=0 Type=0 Size=5 Vnet=2 VC=10 Src NI=16 Src Router=16 Dest NI=123 Dest Router=59 Set Time=459500 Width=16 ]
Flit_ID=5328 [flit:: PacketId=277 Id=1 Type=1 Size=5 Vnet=2 VC=10 Src NI=16 Src Router=16 Dest NI=123 Dest Router=59 Set Time=459500 Width=16 ]
Flit_ID=5329 [flit:: PacketId=277 Id=2 Type=1 Size=5 Vnet=2 VC=10 Src NI=16 Src Router=16 Dest NI=123 Dest Router=59 Set Time=459500 Width=16 ]
Flit_ID=5330 [flit:: PacketId=277 Id=3 Type=1 Size=5 Vnet=2 VC=10 Src NI=16 Src Router=16 Dest NI=123 Dest Router=59 Set Time=459500 Width=16 ]
Flit_ID=5331 [flit:: PacketId=277 Id=4 Type=2 Size=5 Vnet=2 VC=10 Src NI=16 Src Router=16 Dest NI=123 Dest Router=59 Set Time=459500 Width=16 ]
DataFlit_ID=5340 [flit:: PacketId=278 Id=0 Type=0 Size=5 Vnet=2 VC=9 Src NI=13 Src Router=13 Dest NI=81 Dest Router=17 Set Time=460500 Width=16 ]
Flit_ID=5341 [flit:: PacketId=278 Id=1 Type=1 Size=5 Vnet=2 VC=9 Src NI=13 Src Router=13 Dest NI=81 Dest Router=17 Set Time=460500 Width=16 ]
Flit_ID=5342 [flit:: PacketId=278 Id=2 Type=1 Size=5 Vnet=2 VC=9 Src NI=13 Src Router=13 Dest NI=81 Dest Router=17 Set Time=460500 Width=16 ]
Flit_ID=5343 [flit:: PacketId=278 Id=3 Type=1 Size=5 Vnet=2 VC=9 Src NI=13 Src Router=13 Dest NI=81 Dest Router=17 Set Time=460500 Width=16 ]
Flit_ID=5344 [flit:: PacketId=278 Id=4 Type=2 Size=5 Vnet=2 VC=9 Src NI=13 Src Router=13 Dest NI=81 Dest Router=17 Set Time=460500 Width=16 ]
ControlFlit_ID=5345 [flit:: PacketId=279 Id=0 Type=3 Size=1 Vnet=0 VC=3 Src NI=39 Src Router=39 Dest NI=102 Dest Router=38 Set Time=460500 Width=16 ]
ControlFlit_ID=5423 [flit:: PacketId=280 Id=0 Type=3 Size=1 Vnet=1 VC=6 Src NI=60 Src Router=60 Dest NI=81 Dest Router=17 Set Time=464500 Width=16 ]
ControlFlit_ID=5468 [flit:: PacketId=281 Id=0 Type=3 Size=1 Vnet=1 VC=5 Src NI=54 Src Router=54 Dest NI=95 Dest Router=31 Set Time=466500 Width=16 ]
DataFlit_ID=5489 [flit:: PacketId=282 Id=0 Type=0 Size=5 Vnet=2 VC=10 Src NI=63 Src Router=63 Dest NI=84 Dest Router=20 Set Time=467500 Width=16 ]
Flit_ID=5490 [flit:: PacketId=282 Id=1 Type=1 Size=5 Vnet=2 VC=10 Src NI=63 Src Router=63 Dest NI=84 Dest Router=20 Set Time=467500 Width=16 ]
Flit_ID=5491 [flit:: PacketId=282 Id=2 Type=1 Size=5 Vnet=2 VC=10 Src NI=63 Src Router=63 Dest NI=84 Dest Router=20 Set Time=467500 Width=16 ]
Flit_ID=5492 [flit:: PacketId=282 Id=3 Type=1 Size=5 Vnet=2 VC=10 Src NI=63 Src Router=63 Dest NI=84 Dest Router=20 Set Time=467500 Width=16 ]
Flit_ID=5493 [flit:: PacketId=282 Id=4 Type=2 Size=5 Vnet=2 VC=10 Src NI=63 Src Router=63 Dest NI=84 Dest Router=20 Set Time=467500 Width=16 ]
ControlFlit_ID=5494 [flit:: PacketId=283 Id=0 Type=3 Size=1 Vnet=1 VC=5 Src NI=50 Src Router=50 Dest NI=76 Dest Router=12 Set Time=467500 Width=16 ]
ControlFlit_ID=5512 [flit:: PacketId=284 Id=0 Type=3 Size=1 Vnet=0 VC=2 Src NI=57 Src Router=57 Dest NI=82 Dest Router=18 Set Time=468500 Width=16 ]
ControlFlit_ID=5553 [flit:: PacketId=285 Id=0 Type=3 Size=1 Vnet=1 VC=4 Src NI=51 Src Router=51 Dest NI=99 Dest Router=35 Set Time=471500 Width=16 ]
DataFlit_ID=5554 [flit:: PacketId=286 Id=0 Type=0 Size=5 Vnet=2 VC=10 Src NI=49 Src Router=49 Dest NI=116 Dest Router=52 Set Time=471500 Width=16 ]
Flit_ID=5555 [flit:: PacketId=286 Id=1 Type=1 Size=5 Vnet=2 VC=10 Src NI=49 Src Router=49 Dest NI=116 Dest Router=52 Set Time=471500 Width=16 ]
Flit_ID=5556 [flit:: PacketId=286 Id=2 Type=1 Size=5 Vnet=2 VC=10 Src NI=49 Src Router=49 Dest NI=116 Dest Router=52 Set Time=471500 Width=16 ]
Flit_ID=5557 [flit:: PacketId=286 Id=3 Type=1 Size=5 Vnet=2 VC=10 Src NI=49 Src Router=49 Dest NI=116 Dest Router=52 Set Time=471500 Width=16 ]
Flit_ID=5558 [flit:: PacketId=286 Id=4 Type=2 Size=5 Vnet=2 VC=10 Src NI=49 Src Router=49 Dest NI=116 Dest Router=52 Set Time=471500 Width=16 ]
ControlFlit_ID=5559 [flit:: PacketId=287 Id=0 Type=3 Size=1 Vnet=0 VC=2 Src NI=9 Src Router=9 Dest NI=109 Dest Router=45 Set Time=471500 Width=16 ]
DataFlit_ID=5586 [flit:: PacketId=288 Id=0 Type=0 Size=5 Vnet=2 VC=9 Src NI=5 Src Router=5 Dest NI=126 Dest Router=62 Set Time=473500 Width=16 ]
Flit_ID=5587 [flit:: PacketId=288 Id=1 Type=1 Size=5 Vnet=2 VC=9 Src NI=5 Src Router=5 Dest NI=126 Dest Router=62 Set Time=473500 Width=16 ]
Flit_ID=5588 [flit:: PacketId=288 Id=2 Type=1 Size=5 Vnet=2 VC=9 Src NI=5 Src Router=5 Dest NI=126 Dest Router=62 Set Time=473500 Width=16 ]
Flit_ID=5589 [flit:: PacketId=288 Id=3 Type=1 Size=5 Vnet=2 VC=9 Src NI=5 Src Router=5 Dest NI=126 Dest Router=62 Set Time=473500 Width=16 ]
Flit_ID=5590 [flit:: PacketId=288 Id=4 Type=2 Size=5 Vnet=2 VC=9 Src NI=5 Src Router=5 Dest NI=126 Dest Router=62 Set Time=473500 Width=16 ]
ControlFlit_ID=5623 [flit:: PacketId=289 Id=0 Type=3 Size=1 Vnet=1 VC=7 Src NI=10 Src Router=10 Dest NI=99 Dest Router=35 Set Time=475500 Width=16 ]
ControlFlit_ID=5689 [flit:: PacketId=290 Id=0 Type=3 Size=1 Vnet=0 VC=1 Src NI=41 Src Router=41 Dest NI=116 Dest Router=52 Set Time=480500 Width=16 ]
DataFlit_ID=5720 [flit:: PacketId=291 Id=0 Type=0 Size=5 Vnet=2 VC=8 Src NI=56 Src Router=56 Dest NI=91 Dest Router=27 Set Time=487500 Width=16 ]
Flit_ID=5721 [flit:: PacketId=291 Id=1 Type=1 Size=5 Vnet=2 VC=8 Src NI=56 Src Router=56 Dest NI=91 Dest Router=27 Set Time=487500 Width=16 ]
Flit_ID=5722 [flit:: PacketId=291 Id=2 Type=1 Size=5 Vnet=2 VC=8 Src NI=56 Src Router=56 Dest NI=91 Dest Router=27 Set Time=487500 Width=16 ]
Flit_ID=5723 [flit:: PacketId=291 Id=3 Type=1 Size=5 Vnet=2 VC=8 Src NI=56 Src Router=56 Dest NI=91 Dest Router=27 Set Time=487500 Width=16 ]
Flit_ID=5724 [flit:: PacketId=291 Id=4 Type=2 Size=5 Vnet=2 VC=8 Src NI=56 Src Router=56 Dest NI=91 Dest Router=27 Set Time=487500 Width=16 ]
ControlFlit_ID=5726 [flit:: PacketId=292 Id=0 Type=3 Size=1 Vnet=1 VC=6 Src NI=40 Src Router=40 Dest NI=74 Dest Router=10 Set Time=488500 Width=16 ]
DataFlit_ID=5731 [flit:: PacketId=293 Id=0 Type=0 Size=5 Vnet=2 VC=9 Src NI=62 Src Router=62 Dest NI=114 Dest Router=50 Set Time=489500 Width=16 ]
Flit_ID=5732 [flit:: PacketId=293 Id=1 Type=1 Size=5 Vnet=2 VC=9 Src NI=62 Src Router=62 Dest NI=114 Dest Router=50 Set Time=489500 Width=16 ]
Flit_ID=5733 [flit:: PacketId=293 Id=2 Type=1 Size=5 Vnet=2 VC=9 Src NI=62 Src Router=62 Dest NI=114 Dest Router=50 Set Time=489500 Width=16 ]
Flit_ID=5734 [flit:: PacketId=293 Id=3 Type=1 Size=5 Vnet=2 VC=9 Src NI=62 Src Router=62 Dest NI=114 Dest Router=50 Set Time=489500 Width=16 ]
Flit_ID=5735 [flit:: PacketId=293 Id=4 Type=2 Size=5 Vnet=2 VC=9 Src NI=62 Src Router=62 Dest NI=114 Dest Router=50 Set Time=489500 Width=16 ]
ControlFlit_ID=5761 [flit:: PacketId=294 Id=0 Type=3 Size=1 Vnet=0 VC=0 Src NI=32 Src Router=32 Dest NI=111 Dest Router=47 Set Time=492500 Width=16 ]
ControlFlit_ID=5774 [flit:: PacketId=295 Id=0 Type=3 Size=1 Vnet=1 VC=5 Src NI=44 Src Router=44 Dest NI=100 Dest Router=36 Set Time=493500 Width=16 ]
ControlFlit_ID=5788 [flit:: PacketId=296 Id=0 Type=3 Size=1 Vnet=0 VC=2 Src NI=48 Src Router=48 Dest NI=70 Dest Router=6 Set Time=494500 Width=16 ]
ControlFlit_ID=5803 [flit:: PacketId=297 Id=0 Type=3 Size=1 Vnet=1 VC=7 Src NI=56 Src Router=56 Dest NI=97 Dest Router=33 Set Time=495500 Width=16 ]
ControlFlit_ID=5830 [flit:: PacketId=298 Id=0 Type=3 Size=1 Vnet=0 VC=2 Src NI=45 Src Router=45 Dest NI=95 Dest Router=31 Set Time=497500 Width=16 ]
ControlFlit_ID=5839 [flit:: PacketId=299 Id=0 Type=3 Size=1 Vnet=0 VC=1 Src NI=52 Src Router=52 Dest NI=68 Dest Router=4 Set Time=498500 Width=16 ]
Exiting @ tick 500000 because Network Tester completed simCycles
